18
  This energy is -2.2595 and Call times are: 8373
C	0.00729213	1.11635	0.200277
C	0.606342	0.566825	-0.894956
C	0.385012	-0.840822	-0.796664
C	-0.32975	-1.02723	0.349958
O	-0.569354	0.157361	0.971531
H	-0.0777447	2.16171	0.539745
H	1.14959	1.09931	-1.6921
H	0.722537	-1.61674	-1.50245
H	-0.722746	-1.94047	0.826191
C	4.20874	-0.266991	-1.07086
C	4.103	0.990518	-0.515311
N	3.58944	0.929707	0.737313
C	3.37738	-0.360621	0.958017
N	3.73473	-1.12332	-0.102255
H	4.57552	-0.601923	-2.05414
H	4.38808	1.94059	-0.99588
H	2.9623	-0.801592	1.87861
H	3.66415	-2.16797	-0.172978
