18
  This energy is -1.4509 and Call times are: 95511
C	0.719366	-0.149654	-0.864013
C	0.386483	-1.15778	-0.00771847
C	-0.528064	-0.588276	0.930037
C	-0.673313	0.717595	0.564009
O	0.0813124	1.0028	-0.529706
H	1.38975	-0.124884	-1.73878
H	0.748622	-2.1981	-0.0338181
H	-1.01599	-1.09925	1.77557
H	-1.27543	1.53478	0.994035
C	4.40297	-0.894116	-0.7591
C	4.97292	-0.932191	0.495829
N	4.91316	0.281053	1.09664
C	4.30844	1.0688	0.217785
N	3.98095	0.407059	-0.917312
H	4.27218	-1.67483	-1.5252
H	5.42619	-1.81335	0.978494
H	4.0805	2.1382	0.354387
H	3.49764	0.808678	-1.75777
