18
  This energy is -1.6001 and Call times are: 32501
C	-0.335544	0.486584	0.968012
C	0.853526	0.78918	0.372258
C	0.916204	-0.0152028	-0.806367
C	-0.240098	-0.738336	-0.826809
O	-1.01639	-0.44451	0.249317
H	-0.805832	0.859588	1.89265
H	1.61056	1.50684	0.727178
H	1.73149	-0.0452157	-1.54697
H	-0.623176	-1.48455	-1.54211
C	4.34361	-1.09232	-0.355231
C	4.57479	-0.675809	0.938684
N	4.84197	0.651991	0.984216
C	4.77678	1.05767	-0.276658
N	4.47921	0.0430265	-1.12256
H	4.10031	-2.08326	-0.770435
H	4.55359	-1.30959	1.84019
H	4.93837	2.08669	-0.636155
H	4.37217	0.108712	-2.16442
