18
  This energy is -1.0845 and Call times are: 20118
C	-0.92444	-0.554493	0.352631
C	-0.866681	0.0744604	-0.856275
C	0.438832	0.648325	-0.936477
C	1.06361	0.319392	0.230499
O	0.245722	-0.41511	1.02961
H	-1.72953	-1.12799	0.840662
H	-1.66348	0.12884	-1.61539
H	0.855502	1.23611	-1.77014
H	2.07501	0.544366	0.606937
C	4.54077	-1.07846	0.105473
C	4.99752	-0.483055	-1.05125
N	5.46184	0.766485	-0.807174
C	5.29377	0.945577	0.496016
N	4.74178	-0.138215	1.09123
H	4.10157	-2.0716	0.290735
H	5.00035	-0.932697	-2.05756
H	5.55763	1.85118	1.06566
H	4.5109	-0.242402	2.10962
