18
  This energy is -1.0949 and Call times are: 144915
C	0.0477354	0.697863	-0.89281
C	-1.08559	0.537156	-0.151115
C	-0.755114	-0.407159	0.868281
C	0.550993	-0.740147	0.659537
O	1.05716	-0.07466	-0.411882
H	0.261616	1.32348	-1.77491
H	-2.05688	1.03377	-0.306293
H	-1.41922	-0.788278	1.66063
H	1.2247	-1.42845	1.19582
C	5.10702	0.0635255	-1.17516
C	6.07785	0.531838	-0.31533
N	5.74471	0.290386	0.975882
C	4.57167	-0.325374	0.917304
N	4.14463	-0.48572	-0.357654
H	5.03528	0.0816382	-2.27428
H	7.01271	1.03962	-0.603514
H	3.98173	-0.680343	1.77766
H	3.25073	-0.941587	-0.664872
