18
  This energy is -1.3932 and Call times are: 117626
C	-0.0562609	-0.258787	1.10284
C	-0.628559	-1.03694	0.139864
C	-0.346415	-0.391865	-1.10287
C	0.373391	0.723535	-0.789606
O	0.559947	0.820589	0.553074
H	-0.0174823	-0.363079	2.1996
H	-1.1928	-1.97144	0.289628
H	-0.6484	-0.726782	-2.10822
H	0.804747	1.5168	-1.422
C	4.71386	-0.526265	0.918744
C	4.30572	-1.12349	-0.25509
N	3.75184	-0.217725	-1.0973
C	3.81613	0.937023	-0.448421
N	4.38795	0.803533	0.771741
H	5.19704	-0.939666	1.81828
H	4.40097	-2.19172	-0.509388
H	3.4592	1.91088	-0.820482
H	4.5518	1.56748	1.4723
