18
  This energy is -1.266 and Call times are: 21228
C	0.381276	0.212897	1.04676
C	-0.719701	-0.557559	0.813048
C	-0.878978	-0.591691	-0.60596
C	0.138727	0.16092	-1.11412
O	0.918153	0.660037	-0.118935
H	0.877528	0.513728	1.98404
H	-1.35585	-1.05222	1.56452
H	-1.66318	-1.11808	-1.17344
H	0.413361	0.41426	-2.15125
C	3.96975	-0.488433	0.291725
C	4.38051	0.799918	0.56111
N	5.62689	1.02616	0.0795814
C	5.98797	-0.117491	-0.48638
N	5.023	-1.06202	-0.384914
H	3.03368	-1.01995	0.525834
H	3.79987	1.57026	1.09429
H	6.94778	-0.317738	-0.989265
H	5.06851	-2.04415	-0.75179
