18
  This energy is -0.9481 and Call times are: 197236
C	0.242772	0.565199	-0.952897
C	-0.964746	0.672123	-0.327725
C	-0.887876	-0.176132	0.818867
C	0.359832	-0.72653	0.793143
O	1.064	-0.284857	-0.282072
H	0.635961	1.03575	-1.869
H	-1.82346	1.28668	-0.642422
H	-1.67514	-0.350024	1.56992
H	0.859979	-1.43625	1.47241
C	5.11587	-0.0535326	-1.11116
C	6.42596	0.0431548	-0.692259
N	6.5049	0.0827945	0.660038
C	5.24856	0.0109717	1.07848
N	4.37353	-0.0727233	0.0484737
H	4.67404	-0.108216	-2.1188
H	7.31563	0.0850216	-1.34156
H	4.9132	0.0156983	2.12811
H	3.32867	-0.139509	0.119694
