18
  This energy is -1.2867 and Call times are: 113593
C	0.882679	0.710743	-0.0460824
C	-0.404542	1.15031	0.0550066
C	-1.21738	-0.0237806	0.085514
C	-0.355116	-1.07717	0.000375018
O	0.931501	-0.646987	-0.0807035
H	1.83922	1.25595	-0.101186
H	-0.74728	2.1964	0.103251
H	-2.31564	-0.0689998	0.162114
H	-0.52956	-2.16559	-0.0122806
C	4.26653	-1.08599	-0.133466
C	5.11807	-0.423594	-0.992104
N	5.41616	0.813721	-0.526591
C	4.75207	0.91852	0.616491
N	4.04381	-0.200826	0.897581
H	3.81824	-2.09111	-0.181572
H	5.52269	-0.816301	-1.93916
H	4.74923	1.7928	1.28721
H	3.44004	-0.363409	1.74037
