18
  This energy is -0.6591 and Call times are: 289
C	-1.13055	-0.0908909	-0.00155539
C	-0.40258	-0.0113241	-1.15225
C	0.962615	0.091025	-0.744966
C	0.948384	0.0649667	0.618666
O	-0.321639	-0.045774	1.08961
H	-2.21534	-0.181311	0.172515
H	-0.788268	-0.0234844	-2.18434
H	1.84587	0.173998	-1.39848
H	1.76313	0.116955	1.35944
C	5.13688	0.0239195	0.177984
C	6.101	0.673393	0.919469
N	7.34127	0.424715	0.433245
C	7.14731	-0.375987	-0.605929
N	5.83505	-0.647078	-0.801052
H	4.03995	-0.00722134	0.274513
H	5.92391	1.31696	1.79657
H	7.93108	-0.793146	-1.25856
H	5.42718	-1.25297	-1.55457
