18
  This energy is -0.7535 and Call times are: 86954
C	-1.00344	0.510772	0.136462
C	-0.893315	-0.817848	-0.151661
C	0.507067	-1.08272	-0.245954
C	1.12907	0.107426	-0.00712926
O	0.22183	1.09153	0.228358
H	-1.88456	1.15327	0.297927
H	-1.71572	-1.53903	-0.28447
H	0.986308	-2.0501	-0.466409
H	2.19645	0.381384	0.0231358
C	5.93202	-1.04656	0.423758
C	4.95145	-0.807455	-0.515638
N	4.83261	0.518055	-0.771393
C	5.73601	1.09905	0.00638144
N	6.42473	0.198157	0.746407
H	6.30173	-1.98314	0.870588
H	4.32761	-1.56762	-1.01344
H	5.93492	2.18081	0.0732414
H	7.18853	0.407899	1.4348
