18
  This energy is -1.0569 and Call times are: 121329
C	0.822232	-0.40784	-0.666335
C	0.88213	-0.479044	0.694443
C	-0.318211	0.130951	1.1711
C	-1.00566	0.521065	0.059527
O	-0.32387	0.199917	-1.07142
H	1.52135	-0.748288	-1.44773
H	1.69049	-0.917168	1.30164
H	-0.625557	0.259812	2.22135
H	-1.9767	1.02936	-0.0586454
C	5.89665	1.03996	-0.238554
C	4.58191	0.810886	0.108033
N	4.35343	-0.50911	0.312779
C	5.52199	-1.09669	0.0940413
N	6.48451	-0.205267	-0.241392
H	6.43749	1.96996	-0.475476
H	3.7941	1.57441	0.214027
H	5.72844	-2.17673	0.165603
H	7.4875	-0.421508	-0.461657
