18
  This energy is -0.6393 and Call times are: 102215
C	0.0637832	0.568576	-0.979313
C	1.13215	-0.0914121	-0.446967
C	0.664593	-0.674549	0.770187
C	-0.648209	-0.319431	0.874179
O	-1.0319	0.439906	-0.185632
H	-0.0441346	1.15894	-1.90402
H	2.1476	-0.160661	-0.869051
H	1.24546	-1.28582	1.47944
H	-1.40668	-0.540446	1.64302
C	7.05057	-0.456814	-0.269645
C	5.9448	-0.383713	-1.09004
N	4.90288	0.205286	-0.454432
C	5.36054	0.496476	0.755683
N	6.65046	0.117168	0.916375
H	8.06021	-0.863118	-0.440191
H	5.88012	-0.745414	-2.1292
H	4.79339	0.987388	1.56289
H	7.2345	0.237415	1.77991
