18
  This energy is -1.2232 and Call times are: 51622
C	-0.973196	0.0996062	-0.573908
C	-0.262197	1.18289	-0.148047
C	0.883295	0.658705	0.525153
C	0.77117	-0.698622	0.451246
O	-0.356708	-1.05766	-0.21658
H	-1.91986	0.0202711	-1.13317
H	-0.518653	2.24458	-0.293393
H	1.69157	1.23318	1.00554
H	1.41834	-1.50731	0.828671
C	4.44248	-0.939942	-0.43677
C	4.36022	-0.4533	0.850692
N	5.13624	0.646513	1.00786
C	5.6978	0.841424	-0.177592
N	5.31123	-0.0887837	-1.08251
H	3.96036	-1.80293	-0.922932
H	3.75482	-0.876062	1.669
H	6.39968	1.65006	-0.43778
H	5.61537	-0.149953	-2.08501
