18
  This energy is -1.261 and Call times are: 164870
C	-0.526968	-0.854964	0.527011
C	0.788914	-0.565896	0.739774
C	1.0815	0.558551	-0.090968
C	-0.0814211	0.857353	-0.738049
O	-1.07421	0.00421826	-0.372622
H	-1.18148	-1.63547	0.948532
H	1.48382	-1.09174	1.41408
H	2.04836	1.07787	-0.188836
H	-0.328829	1.6414	-1.47242
C	4.75485	-0.534295	-0.990199
C	4.4452	-0.904965	0.30126
N	5.01189	-0.063959	1.20019
C	5.67059	0.825067	0.469191
N	5.54651	0.584581	-0.857595
H	4.47714	-0.972914	-1.96181
H	3.82305	-1.76416	0.600511
H	6.26014	1.67258	0.854411
H	5.97225	1.14389	-1.63681
