18
  This energy is -0.8498 and Call times are: 155303
C	0.329686	-0.901345	0.604388
C	1.05526	0.252714	0.55897
C	0.327012	1.1392	-0.291864
C	-0.779299	0.448598	-0.69127
O	-0.793867	-0.799401	-0.153404
H	0.503063	-1.85366	1.13191
H	2.00776	0.459047	1.07305
H	0.602604	2.16951	-0.568631
H	-1.61921	0.729733	-1.3476
C	4.8718	0.542336	0.901093
C	4.85812	0.931134	-0.421704
N	5.57191	0.0732873	-1.19055
C	6.02667	-0.844207	-0.347921
N	5.63183	-0.605692	0.925185
H	4.40988	0.986548	1.79711
H	4.346	1.81526	-0.835105
H	6.65314	-1.71199	-0.610062
H	5.86099	-1.18494	1.7697
