18
  This energy is -2.5716 and Call times are: 27835
C	-0.084032	0.465515	-1.03084
C	0.520257	-0.739028	-0.820402
C	0.428061	-0.982665	0.58397
C	-0.224428	0.0945016	1.10775
O	-0.544638	0.988802	0.135788
H	-0.248532	1.05012	-1.95086
H	0.984373	-1.39062	-1.57811
H	0.806483	-1.86072	1.13162
H	-0.517208	0.340105	2.14177
C	4.53078	-1.10037	0.381637
C	5.74053	-0.463669	0.201985
N	5.56436	0.801517	-0.250543
C	4.25033	0.949142	-0.351245
N	3.58311	-0.169668	0.0184515
H	4.28539	-2.11602	0.730589
H	6.7373	-0.894528	0.390785
H	3.72353	1.85565	-0.690315
H	2.54221	-0.302769	0.0268268
