18
  This energy is -1.0252 and Call times are: 113850
C	-1.0774	0.342945	-0.089474
C	-0.131405	0.656224	-1.02078
C	1.08081	0.0540902	-0.564626
C	0.768582	-0.573989	0.60516
O	-0.545265	-0.407948	0.910529
H	-2.14964	0.590593	-0.0245783
H	-0.273027	1.25161	-1.93705
H	2.06594	0.0897923	-1.05691
H	1.38302	-1.16415	1.30475
C	5.94548	0.323924	1.12205
C	6.91022	-0.176398	0.273462
N	6.39319	-0.44451	-0.950186
C	5.11258	-0.111782	-0.861052
N	4.79336	0.35692	0.368585
H	5.99561	0.648014	2.17371
H	7.97006	-0.348723	0.522216
H	4.36423	-0.191153	-1.66597
H	3.84827	0.683273	0.687266
