18
  This energy is -0.6778 and Call times are: 207732
C	0.32782	-0.661378	-0.861112
C	1.21504	0.0479938	-0.106125
C	0.432566	0.746846	0.863131
C	-0.863738	0.40284	0.61488
O	-0.946253	-0.456492	-0.434763
H	0.474949	-1.33921	-1.71794
H	2.3106	0.0762943	-0.220301
H	0.800825	1.42472	1.64987
H	-1.80534	0.697395	1.10668
C	5.45524	0.918553	-0.354453
C	5.1824	0.0739857	0.70073
N	6.13911	-0.877761	0.82482
C	7.00218	-0.624594	-0.149675
N	6.63428	0.448782	-0.888661
H	4.91194	1.79151	-0.749821
H	4.31238	0.134323	1.37472
H	7.92037	-1.19372	-0.367037
H	7.1491	0.847225	-1.71174
