18
  This energy is -0.6337 and Call times are: 102867
C	-0.216671	0.847119	0.722387
C	-1.20701	0.106144	0.14745
C	-0.54765	-0.847976	-0.686225
C	0.787412	-0.605823	-0.547139
O	1.00774	0.426048	0.30943
H	-0.25234	1.68976	1.43227
H	-2.29292	0.220028	0.295558
H	-1.02068	-1.62094	-1.31301
H	1.66918	-1.09075	-0.997228
C	6.01516	-0.494002	-0.873286
C	4.81535	-0.933126	-0.354875
N	4.38942	-0.123397	0.644844
C	5.32146	0.814493	0.746246
N	6.32276	0.63508	-0.147512
H	6.65067	-0.891808	-1.68039
H	4.24938	-1.81971	-0.684287
H	5.32032	1.65586	1.45782
H	7.17167	1.24069	-0.265174
