18
  This energy is -0.6006 and Call times are: 186522
C	1.10158	0.267535	-0.036846
C	0.511623	-0.528959	-0.973824
C	-0.860603	-0.632288	-0.591153
C	-0.988062	0.110185	0.545887
O	0.200426	0.666927	0.898797
H	2.14037	0.619398	0.0742468
H	0.994334	-0.996794	-1.84687
H	-1.65337	-1.19617	-1.10851
H	-1.85858	0.318276	1.18943
C	6.0428	1.17133	-0.106008
C	5.14298	0.440335	0.640398
N	5.38555	-0.888694	0.533855
C	6.43187	-0.981834	-0.27557
N	6.86509	0.23284	-0.688454
H	6.1525	2.25676	-0.258819
H	4.3231	0.848081	1.25389
H	6.92094	-1.9149	-0.598726
H	7.67339	0.423386	-1.33003
