18
  This energy is -1.1183 and Call times are: 81622
C	-0.250649	-0.393941	1.03363
C	-1.1685	-0.351908	0.025582
C	-0.485923	0.198292	-1.10202
C	0.788785	0.443908	-0.683494
O	0.950169	0.0882247	0.618219
H	-0.326636	-0.739679	2.07763
H	-2.22067	-0.675852	0.0714489
H	-0.903638	0.385756	-2.10425
H	1.66254	0.86372	-1.20844
C	4.4626	0.549697	0.451887
C	5.78177	0.735259	0.807543
N	6.60057	-0.0647049	0.0821949
C	5.79244	-0.743959	-0.720396
N	4.49338	-0.409344	-0.535777
H	3.53504	1.01667	0.819471
H	6.1574	1.43203	1.57453
H	6.09925	-1.49858	-1.46245
H	3.66708	-0.80508	-1.04751
