18
  This energy is -1.667 and Call times are: 104738
C	0.732848	0.852738	-0.148909
C	0.352361	0.424366	1.08887
C	-0.564765	-0.647851	0.866728
C	-0.663759	-0.780045	-0.487191
O	0.121988	0.128351	-1.12314
H	1.4221	1.65256	-0.465859
H	0.684236	0.823399	2.06084
H	-1.08535	-1.24544	1.63222
H	-1.25059	-1.4721	-1.11323
C	4.16399	-0.651262	-0.979619
C	4.17714	0.725257	-0.901089
N	4.2211	1.14073	0.388081
C	4.23518	0.0262009	1.10658
N	4.20199	-1.08119	0.328014
H	4.13137	-1.33259	-1.84464
H	4.15569	1.42606	-1.75154
H	4.26944	-0.0362807	2.2062
H	4.20469	-2.07747	0.657679
