18
  This energy is -1.8984 and Call times are: 142654
C	0.0165036	0.0304737	1.13367
C	0.231516	-1.1184	0.430654
C	0.13216	-0.757693	-0.947799
C	-0.134797	0.579765	-0.965454
O	-0.208866	1.07748	0.297006
H	-0.00205644	0.231855	2.21734
H	0.439246	-2.11945	0.841557
H	0.247538	-1.42347	-1.81816
H	-0.291602	1.28304	-1.79976
C	4.16729	0.381168	-1.08091
C	4.12181	-0.928823	-0.653124
N	3.77808	-1.00382	0.655591
C	3.61096	0.254858	1.03824
N	3.8341	1.1276	0.0272494
H	4.40524	0.820398	-2.06274
H	4.33085	-1.8212	-1.26534
H	3.32534	0.593628	2.04715
H	3.76623	2.17359	0.0779098
