18
  This energy is -0.9929 and Call times are: 195089
C	-0.976719	-0.117433	0.564474
C	-0.132066	0.932272	0.776734
C	0.971433	0.73119	-0.10756
C	0.703698	-0.423643	-0.782136
O	-0.482065	-0.955359	-0.38432
H	-1.9468	-0.378601	1.01834
H	-0.272044	1.76468	1.48497
H	1.85715	1.37669	-0.221266
H	1.26903	-0.964598	-1.55868
C	6.63728	0.0893202	0.289343
C	5.86844	1.04001	-0.348024
N	4.59776	0.603076	-0.524006
C	4.57837	-0.61404	0.00218459
N	5.78404	-0.969634	0.505671
H	7.69588	0.0913425	0.594114
H	6.20784	2.03336	-0.68405
H	3.70784	-1.28824	0.0454073
H	6.02328	-1.8788	0.971983
