18
  This energy is -0.5467 and Call times are: 18416
C	1.08665	-0.225007	-0.234452
C	0.463889	-0.709825	0.877976
C	-0.87538	-0.216456	0.822645
C	-0.952803	0.5263	-0.318711
O	0.236327	0.531981	-0.976701
H	2.11759	-0.344918	-0.605979
H	0.903516	-1.3506	1.65915
H	-1.68059	-0.398642	1.55239
H	-1.78532	1.09286	-0.767226
C	6.92104	0.638369	0.359525
C	5.68952	1.11382	-0.0385076
N	4.86345	0.0981344	-0.388529
C	5.57979	-1.00323	-0.208325
N	6.82739	-0.730415	0.241844
H	7.82722	1.15981	0.706615
H	5.38223	2.17153	-0.0793962
H	5.23961	-2.03535	-0.39066
H	7.57996	-1.42857	0.459716
