18
  This energy is -0.7749 and Call times are: 161669
C	0.483305	0.99447	0.25268
C	0.817837	-0.163413	0.89125
C	0.00691521	-1.18211	0.30407
C	-0.751573	-0.556811	-0.641483
O	-0.473671	0.772759	-0.686496
H	0.848616	2.02758	0.37299
H	1.56109	-0.287693	1.69513
H	-0.00358107	-2.25326	0.562174
H	-1.51458	-0.941112	-1.33818
C	6.43382	0.459971	-0.691562
C	6.49731	0.28089	0.674104
N	5.35655	-0.27701	1.14731
C	4.58829	-0.443402	0.0792689
N	5.19294	-0.0144981	-1.05388
H	7.15965	0.877545	-1.40735
H	7.3458	0.544244	1.32645
H	3.57423	-0.874507	0.0704624
H	4.79272	-0.0387718	-2.02367
