18
  This energy is -0.9151 and Call times are: 141722
C	-0.884115	0.334624	0.626712
C	-0.824468	-0.898821	0.0475495
C	0.422545	-0.944559	-0.64742
C	1.01485	0.264974	-0.431592
O	0.230832	1.05869	0.344517
H	-1.65476	0.810884	1.25483
H	-1.58256	-1.69644	0.104055
H	0.823545	-1.78469	-1.23688
H	1.9793	0.677594	-0.770453
C	5.1767	0.384432	-1.10549
C	4.54451	-0.697518	-0.530271
N	4.92087	-0.852936	0.762288
C	5.78326	0.128863	0.988083
N	5.97121	0.902526	-0.107231
H	5.11933	0.808226	-2.12069
H	3.82358	-1.36878	-1.02475
H	6.30639	0.327174	1.93742
H	6.60199	1.73788	-0.181803
