18
  This energy is -0.8408 and Call times are: 15005
C	0.751197	0.604606	-0.597123
C	0.000994163	-0.387071	-1.15761
C	-0.812305	-0.905125	-0.103912
C	-0.487302	-0.184292	1.00746
O	0.465951	0.742134	0.724517
H	1.51262	1.27657	-1.02603
H	0.0185668	-0.720336	-2.20772
H	-1.55069	-1.71992	-0.174611
H	-0.857506	-0.233153	2.04467
C	7.60692	-0.747548	-0.0613171
C	6.50894	-0.708507	-0.894425
N	5.65731	0.282224	-0.534301
C	6.2248	0.855624	0.518216
N	7.40221	0.270798	0.842702
H	8.49001	-1.40597	-0.0482254
H	6.316	-1.37746	-1.7489
H	5.82113	1.70726	1.08918
H	8.038	0.541534	1.63247
