18
  This energy is -0.8008 and Call times are: 192235
C	-1.01085	0.513012	0.0375205
C	0.155661	1.17942	0.273174
C	1.19481	0.209069	0.13641
C	0.571578	-0.964647	-0.170746
O	-0.775602	-0.797437	-0.235232
H	-2.05938	0.853321	0.0339169
H	0.272635	2.24719	0.518684
H	2.27767	0.374907	0.254798
H	0.968915	-1.97449	-0.364644
C	5.60795	0.811433	0.852412
C	5.01105	0.917973	-0.385936
N	5.19941	-0.20708	-1.11757
C	5.91045	-1.00852	-0.336081
N	6.18232	-0.440041	0.862461
H	5.66281	1.51418	1.69898
H	4.44786	1.78647	-0.764587
H	6.2588	-2.02217	-0.591842
H	6.72689	-0.870589	1.64944
