18
  This energy is -0.9866 and Call times are: 154482
C	0.962166	0.600434	-0.0107601
C	0.204277	0.455329	1.11393
C	-0.908891	-0.354744	0.733459
C	-0.732976	-0.633151	-0.590141
O	0.404674	-0.0577681	-1.06099
H	1.90648	1.13975	-0.191474
H	0.408609	0.87649	2.11141
H	-1.73924	-0.686539	1.3773
H	-1.33752	-1.22097	-1.30024
C	5.20279	-1.17321	0.0931029
C	5.93345	-0.281361	0.849333
N	5.68607	0.996551	0.472164
C	4.8053	0.897861	-0.514301
N	4.48201	-0.389871	-0.780422
H	5.14661	-2.27318	0.114042
H	6.63468	-0.537088	1.66034
H	4.36422	1.73674	-1.07641
H	3.81026	-0.727274	-1.51267
