18
  This energy is -0.7245 and Call times are: 44570
C	0.538142	0.141156	-0.988372
C	-0.77334	0.474192	-0.816685
C	-1.0835	0.154511	0.540416
C	0.0658329	-0.345655	1.07823
O	1.06642	-0.361076	0.158667
H	1.2016	0.211977	-1.8659
H	-1.45405	0.902048	-1.57012
H	-2.0525	0.285227	1.0484
H	0.297742	-0.719638	2.08898
C	6.66024	0.0980588	-0.171244
C	5.93685	0.588263	0.895316
N	4.62018	0.293143	0.769614
C	4.5271	-0.377594	-0.370592
N	5.72996	-0.521477	-0.975578
H	7.73533	0.144687	-0.406926
H	6.34139	1.1496	1.75328
H	3.60246	-0.786102	-0.809223
H	5.91808	-1.0116	-1.88423
