18
  This energy is -0.8331 and Call times are: 18128
C	0.226406	-0.961095	0.558066
C	-0.852084	-0.180706	0.855095
C	-0.79716	0.923006	-0.0498477
C	0.310045	0.719647	-0.819989
O	0.947193	-0.426318	-0.462469
H	0.585829	-1.90792	0.993489
H	-1.61025	-0.363902	1.63338
H	-1.50427	1.7657	-0.112703
H	0.745889	1.30853	-1.6437
C	6.29999	-0.384831	0.486836
C	5.76344	0.881169	0.589277
N	4.59963	0.975753	-0.0985657
C	4.4149	-0.226996	-0.625721
N	5.41292	-1.08293	-0.301803
H	7.21963	-0.823741	0.905372
H	6.19521	1.72803	1.14718
H	3.56588	-0.535121	-1.25696
H	5.49528	-2.08704	-0.595473
