18
  This energy is -0.7648 and Call times are: 35384
C	-0.838709	-0.342698	0.682294
C	0.384644	0.0279866	1.15808
C	1.1569	0.389004	0.012044
C	0.33729	0.207063	-1.0629
O	-0.885339	-0.239486	-0.672026
H	-1.74764	-0.694395	1.19748
H	0.710536	0.0454426	2.2105
H	2.2006	0.742023	-0.000771392
H	0.502882	0.357686	-2.14232
C	5.96131	-1.12548	-0.247844
C	7.20911	-0.553441	-0.117788
N	7.11354	0.767018	0.171631
C	5.81139	1.01322	0.220936
N	5.0745	-0.0958447	-0.0251153
H	5.65197	-2.15795	-0.475536
H	8.17664	-1.06985	-0.227601
H	5.34311	1.98786	0.433115
H	4.02716	-0.1593	-0.0428388
