18
  This energy is -1.6323 and Call times are: 189670
C	-0.00835833	-0.100342	1.12972
C	0.967244	0.58208	0.46423
C	0.63581	0.485773	-0.921769
C	-0.513068	-0.247	-0.980894
O	-0.920666	-0.613289	0.262774
H	-0.164277	-0.290801	2.20427
H	1.8334	1.10121	0.905118
H	1.1939	0.915382	-1.76916
H	-1.13014	-0.571461	-1.83482
C	4.60094	0.404133	1.08692
C	4.2784	-0.88835	0.731114
N	4.11614	-1.00002	-0.609675
C	4.33718	0.218551	-1.08385
N	4.63336	1.10093	-0.100351
H	4.80296	0.862088	2.06825
H	4.15985	-1.74229	1.41783
H	4.29525	0.51995	-2.14293
H	4.84698	2.12143	-0.219537
