18
  This energy is -0.8847 and Call times are: 54364
C	0.810468	-0.778406	0.153709
C	-0.439074	-1.10215	-0.286979
C	-1.16161	0.128209	-0.352304
C	-0.289813	1.0952	0.054231
O	0.919303	0.559357	0.367152
H	1.69906	-1.39955	0.353287
H	-0.814344	-2.10662	-0.540605
H	-2.20847	0.267362	-0.666648
H	-0.406555	2.18599	0.162916
C	5.71393	-0.147525	-0.923923
C	5.0016	-1.12641	-0.263984
N	4.28051	-0.601922	0.756536
C	4.5445	0.697394	0.729801
N	5.40366	1.02136	-0.265426
H	6.3969	-0.198308	-1.78677
H	4.99504	-2.20171	-0.50592
H	4.13565	1.45662	1.41585
H	5.76465	1.98027	-0.492216
