18
  This energy is -0.7004 and Call times are: 46201
C	0.852189	0.509452	0.5483
C	-0.373811	1.0895	0.403921
C	-1.16447	0.154651	-0.331636
C	-0.351832	-0.914137	-0.571812
O	0.883465	-0.714538	-0.0415145
H	1.77313	0.85986	1.0426
H	-0.689701	2.07665	0.777878
H	-2.21527	0.27287	-0.641373
H	-0.531012	-1.86447	-1.10097
C	6.02955	-0.555258	-0.824895
C	4.85924	0.149442	-1.0118
N	4.40417	0.660023	0.158128
C	5.28879	0.273542	1.06736
N	6.28786	-0.461778	0.524448
H	6.6753	-1.09853	-1.53299
H	4.33509	0.298614	-1.96985
H	5.25312	0.501235	2.14491
H	7.10378	-0.880837	1.03427
