18
  This energy is -1.1575 and Call times are: 61830
C	0.646421	0.400789	0.841373
C	-0.169624	-0.68071	0.998875
C	-0.809474	-0.874829	-0.263277
C	-0.327949	0.105182	-1.08064
O	0.562315	0.893376	-0.422468
H	1.32763	0.910879	1.5421
H	-0.307197	-1.2815	1.91223
H	-1.54178	-1.65606	-0.523084
H	-0.537032	0.345175	-2.13607
C	4.28225	-0.504254	0.537177
C	4.33268	0.765659	0.00245993
N	5.54815	1.01929	-0.540523
C	6.24909	-0.0890626	-0.343406
N	5.53	-1.03739	0.302487
H	3.47372	-1.04816	1.05096
H	3.51382	1.50343	-0.00127119
H	7.29312	-0.259744	-0.651787
H	5.86008	-1.99611	0.572952
