18
  This energy is -1.1637 and Call times are: 132156
C	-0.535373	-0.362125	-0.932009
C	0.400031	-1.11686	-0.287207
C	0.8386	-0.33182	0.822517
C	0.132483	0.833339	0.757889
O	-0.71137	0.832005	-0.307439
H	-1.13912	-0.559	-1.83311
H	0.746441	-2.12525	-0.56515
H	1.59266	-0.610519	1.57606
H	0.138961	1.72877	1.40086
C	4.30161	0.702204	-0.504552
C	4.19568	-0.656995	-0.298391
N	5.30302	-1.14665	0.310339
C	6.09291	-0.0952116	0.481168
N	5.53405	1.04314	0.00636391
H	3.61025	1.4268	-0.963378
H	3.34008	-1.29311	-0.577973
H	7.09092	-0.102737	0.948229
H	5.95869	2.00263	0.0240662
