18
  This energy is -0.7249 and Call times are: 94600
C	1.12545	-0.140323	0.00845031
C	0.376966	-0.171014	1.14828
C	-0.973697	0.0410426	0.734927
C	-0.931351	0.182599	-0.621001
O	0.342714	0.074645	-1.08156
H	2.20898	-0.256514	-0.158024
H	0.739599	-0.327303	2.17695
H	-1.8665	0.0818592	1.37939
H	-1.72714	0.361463	-1.36261
C	4.97605	-0.996877	-0.0448968
C	5.2289	-0.228497	1.07171
N	5.98238	0.853821	0.759669
C	6.19616	0.757248	-0.54555
N	5.60993	-0.34165	-1.07692
H	4.40882	-1.93238	-0.173839
H	4.88115	-0.435677	2.09689
H	6.775	1.46371	-1.16206
H	5.63374	-0.638048	-2.08332
