18
  This energy is -0.8359 and Call times are: 34503
C	0.707794	0.548314	0.696262
C	1.12634	-0.0221107	-0.469846
C	-0.0361195	-0.607716	-1.05795
C	-1.06241	-0.34345	-0.199313
O	-0.626136	0.361722	0.877445
H	1.25367	1.10757	1.47376
H	2.1509	-0.0297393	-0.875214
H	-0.0920625	-1.15966	-2.00996
H	-2.13399	-0.599004	-0.240106
C	4.97382	-1.05163	-0.0479704
C	5.00583	-0.0962538	-1.04164
N	5.70168	0.997228	-0.645899
C	6.09983	0.721269	0.588583
N	5.68616	-0.502468	0.994708
H	4.51	-2.05012	-0.0102972
H	4.53931	-0.176375	-2.03702
H	6.69656	1.37977	1.24013
H	5.87256	-0.948035	1.92636
