18
  This energy is -1.049 and Call times are: 68878
C	0.124562	-0.692121	-0.889861
C	0.894285	-0.797937	0.231166
C	0.444687	0.231961	1.11281
C	-0.56009	0.876217	0.452707
O	-0.768999	0.325051	-0.771869
H	0.114521	-1.27217	-1.82725
H	1.69804	-1.528	0.418455
H	0.830546	0.459182	2.11957
H	-1.1957	1.72917	0.742031
C	6.14763	-0.368769	-0.389336
C	4.94332	-0.444888	-1.05641
N	3.93821	0.0756475	-0.311212
C	4.51678	0.47318	0.813887
N	5.84835	0.22716	0.815442
H	7.16259	-0.685922	-0.677102
H	4.78165	-0.866075	-2.06205
H	4.01213	0.950444	1.66932
H	6.52403	0.448252	1.58735
