18
  This energy is -1.5317 and Call times are: 178383
C	0.877522	0.294464	0.655474
C	1.04047	-0.187507	-0.61004
C	-0.275443	-0.440173	-1.10466
C	-1.12636	-0.090298	-0.0977336
O	-0.439371	0.36049	0.984784
H	1.60856	0.621578	1.41299
H	1.99188	-0.348915	-1.14188
H	-0.547163	-0.836433	-2.09624
H	-2.22629	-0.114744	-0.0284243
C	5.3023	1.11654	0.315177
C	6.49011	0.582437	-0.137554
N	6.35951	-0.738676	-0.409789
C	5.09547	-1.02307	-0.127021
N	4.4164	0.0623278	0.313845
H	5.03369	2.13815	0.627781
H	7.43902	1.12667	-0.27264
H	4.61515	-2.00998	-0.224671
H	3.40731	0.0946362	0.600105
