18
  This energy is -1.2043 and Call times are: 175302
C	0.641995	0.774073	-0.524456
C	-0.706184	0.920778	-0.37863
C	-1.15237	-0.241051	0.322219
C	-0.0374615	-0.995169	0.542804
O	1.0674	-0.39038	0.032398
H	1.40051	1.41848	-0.998437
H	-1.32444	1.76269	-0.729407
H	-2.18535	-0.479054	0.622876
H	0.100225	-1.96734	1.04399
C	4.89188	1.01353	0.566596
C	5.30436	-0.243172	0.956083
N	4.90918	-1.18502	0.0654324
C	4.25403	-0.515168	-0.873022
N	4.21598	0.813849	-0.616399
H	5.02698	2.00281	1.03202
H	5.88003	-0.487149	1.86379
H	3.78228	-0.948525	-1.76962
H	3.75872	1.5516	-1.20623
