18
  This energy is -0.3053 and Call times are: 114989
C	0.413123	1.02033	0.273223
C	-0.516142	0.379609	1.03893
C	-0.781539	-0.858226	0.377536
C	0.00897416	-0.864653	-0.733959
O	0.745284	0.274879	-0.813506
H	0.910632	1.99689	0.391846
H	-0.969265	0.742275	1.97555
H	-1.48135	-1.64612	0.699387
H	0.137209	-1.61042	-1.53561
C	6.36353	-0.998334	-0.266178
C	5.74522	-0.136872	-1.1475
N	5.19473	0.916365	-0.496225
C	5.47047	0.709091	0.784253
N	6.1736	-0.432369	0.974707
H	6.90713	-1.94258	-0.428798
H	5.68647	-0.256433	-2.24162
H	5.18133	1.36148	1.6239
H	6.50998	-0.813599	1.89273
