18
  This energy is -1.0031 and Call times are: 203668
C	-0.278345	1.04184	0.351424
C	-0.828575	0.474655	-0.760298
C	-0.235682	-0.81991	-0.872978
C	0.624517	-0.929537	0.179833
O	0.611224	0.198286	0.938023
H	-0.434228	2.02571	0.823599
H	-1.57689	0.922929	-1.43348
H	-0.432909	-1.57492	-1.65089
H	1.29359	-1.74693	0.495226
C	4.30326	-0.0169063	0.625557
C	4.70254	0.953545	-0.268839
N	5.90774	0.652657	-0.810559
C	6.25482	-0.500073	-0.254346
N	5.32041	-0.945103	0.618818
H	3.3975	-0.109586	1.24567
H	4.14259	1.86543	-0.532964
H	7.18228	-1.06177	-0.450661
H	5.36272	-1.82884	1.18315
