18
  This energy is -0.544 and Call times are: 136289
C	-0.986666	-0.0954386	0.551165
C	-0.884425	-0.265318	-0.798303
C	0.494676	-0.0686393	-1.11377
C	1.11344	0.204065	0.0707753
O	0.223841	0.191798	1.09814
H	-1.85214	-0.151751	1.23163
H	-1.69849	-0.505077	-1.50108
H	0.96247	-0.125586	-2.10977
H	2.16685	0.421413	0.312309
C	7.09541	-0.358415	0.515552
C	5.8132	-0.503316	1.00145
N	4.90419	0.0262512	0.147189
C	5.61974	0.497888	-0.86482
N	6.94636	0.29036	-0.689879
H	8.07084	-0.660972	0.928495
H	5.52772	-0.980485	1.95311
H	5.22288	1.00425	-1.75943
H	7.71495	0.570334	-1.34726
