18
  This energy is -0.9143 and Call times are: 86794
C	0.566888	-0.980134	-0.0661518
C	1.0568	0.103363	0.601973
C	0.0713101	1.12768	0.461662
C	-0.93383	0.579711	-0.279818
O	-0.647898	-0.707015	-0.610866
H	0.980507	-1.98956	-0.22498
H	2.01595	0.174178	1.13968
H	0.114445	2.1506	0.868947
H	-1.89143	0.995525	-0.633875
C	4.74879	-0.703187	0.683044
C	4.99439	-0.855284	-0.665173
N	5.78689	0.139615	-1.13276
C	6.032	0.906006	-0.078629
N	5.42831	0.439978	1.04028
H	4.15825	-1.30739	1.38996
H	4.61396	-1.66507	-1.30889
H	6.64709	1.82024	-0.0703073
H	5.46996	0.867946	1.99756
