18
  This energy is -0.876 and Call times are: 16995
C	-0.857968	0.713567	0.202764
C	-0.830176	-0.10384	-0.88877
C	0.390551	-0.839513	-0.795347
C	1.00097	-0.406722	0.34503
O	0.252485	0.541786	0.967222
H	-1.60124	1.45282	0.543811
H	-1.5928	-0.181	-1.68032
H	0.762586	-1.60048	-1.50006
H	1.95622	-0.691087	0.816067
C	6.19165	-0.734612	-0.224508
C	5.49485	0.0251735	-1.14012
N	4.52996	0.758209	-0.533368
C	4.62779	0.454334	0.753766
N	5.61493	-0.441661	0.991125
H	7.02916	-1.43952	-0.347848
H	5.67106	0.057561	-2.22767
H	4.00161	0.858958	1.56519
H	5.88878	-0.837725	1.92354
