18
  This energy is -1.0074 and Call times are: 170978
C	-1.10227	-0.204794	0.171629
C	-0.354695	-0.924847	-0.713259
C	0.963045	-0.377662	-0.647923
C	0.904393	0.628463	0.271123
O	-0.349387	0.748057	0.781753
H	-2.1657	-0.271436	0.454357
H	-0.696864	-1.75776	-1.3483
H	1.8457	-0.701969	-1.22223
H	1.67447	1.32318	0.644759
C	6.09521	0.83354	0.240715
C	5.44207	0.634206	-0.957121
N	4.59211	-0.418539	-0.880927
C	4.71748	-0.870581	0.359462
N	5.61198	-0.149094	1.07564
H	6.84469	1.5802	0.547827
H	5.56889	1.23114	-1.87496
H	4.17803	-1.72682	0.795434
H	5.88532	-0.307979	2.0763
