18
  This energy is -2.1451 and Call times are: 63832
C	0.465309	0.701099	-0.760493
C	0.694418	-0.643439	-0.770491
C	-0.0535827	-1.17567	0.323738
C	-0.673754	-0.109394	0.905809
O	-0.368045	1.04475	0.256579
H	0.831188	1.50996	-1.41404
H	1.32673	-1.20418	-1.47749
H	-0.116536	-2.23113	0.633817
H	-1.34864	-0.0410804	1.77478
C	3.74937	1.11585	-0.130508
C	4.6146	0.419401	-0.947509
N	4.79689	-0.84665	-0.499852
C	4.0476	-0.935286	0.590717
N	3.39612	0.221887	0.85551
H	3.3726	2.14987	-0.17936
H	5.11058	0.80776	-1.85196
H	3.93958	-1.82411	1.23302
H	2.74582	0.403476	1.65887
