18
  This energy is -1.2605 and Call times are: 140117
C	0.334293	-0.278243	1.04749
C	-0.310755	0.891839	0.773268
C	-0.563139	0.879019	-0.632526
C	-0.0500403	-0.297765	-1.09327
O	0.501894	-1.01704	-0.0808312
H	0.720573	-0.696279	1.99157
H	-0.581667	1.68446	1.48913
H	-1.06864	1.65972	-1.22334
H	-0.0149272	-0.733639	-2.10521
C	3.63007	0.454576	-0.183563
C	4.27086	0.309959	1.02871
N	5.49382	-0.252188	0.870964
C	5.61126	-0.455539	-0.43421
N	4.51373	-0.0460793	-1.11344
H	2.64076	0.864654	-0.441735
H	3.87267	0.601167	2.01436
H	6.47969	-0.900977	-0.945732
H	4.36439	-0.0997705	-2.15078
