18
  This energy is -1.0869 and Call times are: 196018
C	0.565457	0.973962	-0.134374
C	-0.123737	0.383057	-1.15232
C	-0.692121	-0.805809	-0.601273
C	-0.300082	-0.836453	0.704767
O	0.468563	0.242795	1.00712
H	1.15759	1.90298	-0.0949468
H	-0.222009	0.747781	-2.18741
H	-1.3187	-1.54613	-1.12417
H	-0.498803	-1.56162	1.51092
C	5.84931	0.664858	-0.204631
C	5.47375	-0.473437	-0.886088
N	4.32432	-0.986601	-0.384101
C	3.98809	-0.169765	0.605015
N	4.87593	0.841852	0.753179
H	6.71159	1.33899	-0.329333
H	6.01156	-0.933625	-1.73097
H	3.10193	-0.26594	1.25287
H	4.83131	1.61392	1.46253
