18
  This energy is -0.9794 and Call times are: 131664
C	-0.224256	-1.06417	-0.321945
C	-0.949847	0.00174257	-0.7666
C	-0.372801	1.15278	-0.148339
C	0.654475	0.688639	0.619547
O	0.759623	-0.663065	0.525467
H	-0.306817	-2.14331	-0.531477
H	-1.80558	-0.0203285	-1.46037
H	-0.692178	2.20059	-0.267444
H	1.37482	1.21106	1.27026
C	4.70146	-0.944626	0.0693482
C	4.5548	0.244838	0.751119
N	5.54165	1.11659	0.430673
C	6.29764	0.470396	-0.446557
N	5.83272	-0.776374	-0.697548
H	4.10089	-1.86811	0.0754391
H	3.75461	0.489628	1.46849
H	7.20318	0.863386	-0.936244
H	6.25378	-1.48067	-1.35171
