18
  This energy is -0.617 and Call times are: 139412
C	-0.314289	-0.867498	-0.659599
C	0.980174	-0.446191	-0.574508
C	0.975268	0.649683	0.341545
C	-0.321759	0.801308	0.735375
O	-1.12305	-0.116869	0.133796
H	-0.782334	-1.67896	-1.24073
H	1.85111	-0.865099	-1.10373
H	1.84165	1.24938	0.663787
H	-0.796631	1.51465	1.42884
C	5.80338	1.05013	-0.188912
C	5.24053	-0.186072	-0.42588
N	6.09503	-1.1839	-0.0932098
C	7.18385	-0.569064	0.348459
N	7.05755	0.778602	0.310598
H	5.4132	2.06984	-0.335497
H	4.23317	-0.37587	-0.830931
H	8.10242	-1.05754	0.711576
H	7.77779	1.48252	0.605559
