18
  This energy is -0.6422 and Call times are: 163997
C	-1.07673	0.0866819	0.345754
C	-0.578436	0.82866	-0.68456
C	0.790418	0.443157	-0.817765
C	1.00778	-0.500367	0.142908
O	-0.121746	-0.73043	0.862815
H	-2.08015	0.0482414	0.800637
H	-1.12044	1.5728	-1.29003
H	1.52076	0.828971	-1.54704
H	1.90898	-1.0752	0.412449
C	6.59188	0.882552	-0.505839
C	6.90282	0.249646	0.679019
N	6.00441	-0.724338	0.963139
C	5.13941	-0.695774	-0.0416371
N	5.4502	0.25601	-0.953287
H	7.08577	1.70697	-1.04431
H	7.75932	0.478343	1.33397
H	4.26028	-1.34959	-0.159498
H	4.92209	0.474954	-1.8333
