18
  This energy is -1.2652 and Call times are: 147971
C	0.432789	1.04711	-0.0514693
C	0.938445	0.0111167	-0.780439
C	0.139738	-1.12599	-0.450017
C	-0.78349	-0.684478	0.451701
O	-0.619222	0.640292	0.706675
H	0.7285	2.10699	0.015319
H	1.7886	0.0443264	-1.4806
H	0.2475	-2.14971	-0.843055
H	-1.5991	-1.20677	0.97824
C	4.71578	0.863236	-0.546448
C	5.89172	0.98056	0.163875
N	6.28405	-0.217645	0.660751
C	5.35505	-1.07504	0.2602
N	4.38788	-0.472041	-0.470937
H	4.10932	1.61053	-1.08245
H	6.46408	1.90831	0.326745
H	5.33428	-2.15578	0.474211
H	3.5482	-0.933731	-0.89877
