18
  This energy is -0.9808 and Call times are: 23323
C	0.483636	0.274397	0.988536
C	0.325466	-1.01949	0.587025
C	-0.312495	-0.957574	-0.689412
C	-0.487855	0.368685	-0.955232
O	-0.00744973	1.13547	0.0588026
H	0.924338	0.707992	1.90124
H	0.627718	-1.92653	1.13476
H	-0.603223	-1.80706	-1.32811
H	-0.934813	0.888433	-1.81856
C	6.00106	-0.0378453	0.617682
C	5.6598	0.883761	-0.34944
N	4.42944	0.627275	-0.856337
C	4.00902	-0.449354	-0.206151
N	4.92088	-0.888524	0.693425
H	6.90597	-0.144962	1.23673
H	6.27931	1.72917	-0.690539
H	3.04173	-0.957275	-0.349671
H	4.82355	-1.71885	1.32773
