18
  This energy is -0.7592 and Call times are: 186682
C	0.662167	0.783225	0.484246
C	-0.117448	-0.0660544	1.21315
C	-0.792706	-0.890412	0.262055
C	-0.366121	-0.472114	-0.964087
O	0.522719	0.549317	-0.847239
H	1.35138	1.58734	0.790251
H	-0.20794	-0.107824	2.31049
H	-1.51084	-1.69842	0.475364
H	-0.616459	-0.815015	-1.98144
C	4.58206	0.342388	-0.134422
C	5.45424	-0.0449204	-1.12963
N	6.6645	-0.375507	-0.617296
C	6.5436	-0.193976	0.690776
N	5.30657	0.238409	1.03196
H	3.53211	0.673596	-0.172408
H	5.23192	-0.0917468	-2.20816
H	7.32957	-0.362678	1.44444
H	4.96456	0.453465	2.00049
