18
  This energy is -1.3266 and Call times are: 124416
C	0.664238	0.593318	-0.702255
C	-0.541949	1.06008	-0.269101
C	-1.07002	0.0448282	0.585609
C	-0.139912	-0.952712	0.599304
O	0.925785	-0.634569	-0.181777
H	1.42026	1.03323	-1.37319
H	-1.01261	2.02274	-0.525724
H	-2.03152	0.0638235	1.12343
H	-0.118643	-1.92541	1.11762
C	4.80109	-1.10616	0.025066
C	4.07661	-0.46616	1.00826
N	3.77963	0.805703	0.646769
C	4.31782	0.954166	-0.556117
N	4.94493	-0.170512	-0.974964
H	5.2108	-2.12716	-0.0318445
H	3.76288	-0.899336	1.972
H	4.28244	1.86547	-1.17458
H	5.44536	-0.304268	-1.88762
