18
  This energy is -1.638 and Call times are: 120701
C	-1.0362	-0.26344	-0.378548
C	-0.201509	-1.19164	0.171106
C	0.9908	-0.487075	0.520541
C	0.779463	0.809477	0.153575
O	-0.453305	0.964119	-0.397226
H	-2.05598	-0.348868	-0.788406
H	-0.405007	-2.26481	0.315954
H	1.89554	-0.905361	0.990186
H	1.41865	1.70438	0.22992
C	4.85498	-0.914579	0.501592
C	6.18834	-0.582206	0.614846
N	6.47555	0.534991	-0.0964151
C	5.32475	0.89433	-0.648816
N	4.31722	0.0520804	-0.318513
H	4.27025	-1.74295	0.932195
H	6.94826	-1.1285	1.19703
H	5.16376	1.76571	-1.3038
H	3.31698	0.122097	-0.628158
