18
  This energy is -0.9512 and Call times are: 11100
C	-0.573979	-0.640509	0.73939
C	0.173225	-1.17839	-0.26696
C	0.73341	-0.0704259	-0.973159
C	0.279076	1.04671	-0.336015
O	-0.520698	0.717222	0.712225
H	-1.18229	-1.11023	1.52969
H	0.315632	-2.24808	-0.489652
H	1.3965	-0.110261	-1.85226
H	0.450207	2.11862	-0.528324
C	4.47566	-0.0529994	-0.996235
C	5.24477	-1.05711	-0.447257
N	5.82663	-0.651136	0.707356
C	5.42004	0.600074	0.874035
N	4.6036	1.00703	-0.126664
H	3.86667	-0.0188969	-1.91357
H	5.39025	-2.06723	-0.863605
H	5.69	1.26377	1.71121
H	4.15375	1.95033	-0.221958
