18
  This energy is -1.2061 and Call times are: 98630
C	-0.736497	-0.68716	0.52133
C	-0.519159	0.595765	0.930282
C	0.46063	1.1297	0.0386282
C	0.755535	0.125917	-0.836488
O	0.0336146	-0.990967	-0.556465
H	-1.40403	-1.47463	0.90805
H	-1.00051	1.11412	1.77509
H	0.889983	2.14434	0.0546522
H	1.45129	0.0813633	-1.69042
C	4.55569	-0.126248	-1.14432
C	3.9553	-0.785123	-0.0923919
N	4.48353	-0.395912	1.09335
C	5.40811	0.501009	0.778229
N	5.49006	0.698613	-0.558868
H	4.3897	-0.184053	-2.23181
H	3.15043	-1.53436	-0.167771
H	6.05384	1.04358	1.48738
H	6.14129	1.3551	-1.05504
