18
  This energy is -0.4005 and Call times are: 201551
C	1.12925	0.0343622	-0.100021
C	0.307292	-0.172779	-1.16859
C	-1.02296	-0.149146	-0.648993
C	-0.896468	0.0703505	0.691228
O	0.411023	0.184888	1.04387
H	2.22726	0.0955374	-0.0232852
H	0.607604	-0.326771	-2.21749
H	-1.95911	-0.281172	-1.21493
H	-1.64938	0.164408	1.49093
C	6.22702	0.517341	-0.989109
C	5.55591	0.450305	0.213497
N	6.28049	-0.221987	1.1406
C	7.39687	-0.570697	0.515514
N	7.41264	-0.148146	-0.770874
H	5.95391	0.976214	-1.95264
H	4.56186	0.87499	0.428824
H	8.23558	-1.13609	0.952699
H	8.18154	-0.298781	-1.46899
