18
  This energy is -0.8421 and Call times are: 78777
C	-0.360736	1.01068	-0.367157
C	-1.21823	0.0414996	0.0638549
C	-0.399013	-1.06687	0.438716
C	0.886778	-0.677154	0.203685
O	0.928815	0.588889	-0.288636
H	-0.540748	2.02898	-0.749119
H	-2.31738	0.101113	0.112894
H	-0.736707	-2.03747	0.836186
H	1.84663	-1.20103	0.343306
C	5.68454	0.751154	0.692227
C	4.71456	1.06497	-0.236111
N	4.25312	-0.0482566	-0.856032
C	4.93424	-1.04889	-0.314337
N	5.80993	-0.618475	0.62455
H	6.27476	1.38443	1.37351
H	4.33942	2.0747	-0.469698
H	4.83123	-2.11617	-0.568352
H	6.46045	-1.21454	1.19269
