18
  This energy is -0.8887 and Call times are: 197730
C	-0.179705	0.790247	0.793484
C	0.352591	-0.430962	1.0862
C	0.422953	-1.13447	-0.154862
C	-0.0725567	-0.281058	-1.09642
O	-0.44541	0.899057	-0.534888
H	-0.41564	1.6571	1.43235
H	0.664407	-0.799416	2.07671
H	0.80017	-2.15683	-0.317916
H	-0.21059	-0.393061	-2.18438
C	5.95209	0.87562	-0.229665
C	6.14087	-0.167471	0.652076
N	5.06808	-0.995375	0.666444
C	4.217	-0.467898	-0.203078
N	4.70381	0.661302	-0.770098
H	6.59621	1.72687	-0.50173
H	7.03193	-0.337508	1.27814
H	3.22355	-0.867821	-0.462583
H	4.22213	1.25956	-1.48517
