18
  This energy is -1.8542 and Call times are: 104578
C	0.646506	0.628349	-0.688192
C	-0.113634	-0.408041	-1.14476
C	-0.773285	-0.94441	0.00297
C	-0.358017	-0.188437	1.05958
O	0.509375	0.776739	0.655753
H	1.31926	1.32758	-1.21138
H	-0.201055	-0.759562	-2.18538
H	-1.47385	-1.79448	0.0291593
H	-0.6031	-0.235511	2.13335
C	4.25923	0.866332	-0.710995
C	4.27146	0.868669	0.667768
N	3.78503	-0.295352	1.1627
C	3.47223	-1.01707	0.0950385
N	3.73947	-0.360509	-1.0587
H	4.57315	1.62556	-1.44487
H	4.62255	1.6894	1.31428
H	3.04442	-2.03254	0.101131
H	3.58093	-0.717935	-2.03254
