18
  This energy is -1.0465 and Call times are: 180979
C	-0.540041	-0.037583	0.996667
C	-0.874654	0.851208	0.0176583
C	0.0176669	0.592248	-1.06715
C	0.818794	-0.431931	-0.655296
O	0.492185	-0.829005	0.602746
H	-0.954209	-0.205442	2.00441
H	-1.67005	1.61278	0.0556075
H	0.0516735	1.11312	-2.03753
H	1.6462	-0.960109	-1.15697
C	5.90829	-1.00529	0.0669306
C	6.42469	0.269406	-0.0312355
N	5.43574	1.19419	-0.088372
C	4.3101	0.495863	-0.0258894
N	4.54185	-0.834907	0.0686342
H	6.40008	-1.98878	0.133477
H	7.49313	0.538373	-0.0618579
H	3.28866	0.908789	-0.0454126
H	3.81844	-1.59255	0.131283
