18
  This energy is -1.0452 and Call times are: 75573
C	-1.10284	-0.0538961	0.259314
C	-0.395364	-1.14458	-0.153305
C	0.937304	-0.683353	-0.379971
C	0.926561	0.648471	-0.0858551
O	-0.311247	1.04982	0.306271
H	-2.16064	0.0659416	0.545579
H	-0.773974	-2.17096	-0.284859
H	1.7974	-1.28102	-0.72221
H	1.72304	1.41007	-0.114974
C	6.16903	-0.748474	0.263934
C	5.40298	-0.74102	-0.882477
N	4.49155	0.261486	-0.854606
C	4.69141	0.873631	0.304686
N	5.69222	0.30217	1.01559
H	6.99228	-1.40518	0.587274
H	5.49161	-1.44104	-1.72921
H	4.13319	1.74527	0.682666
H	6.03891	0.602277	1.95952
