18
  This energy is -1.0049 and Call times are: 46510
C	-0.810296	-0.696432	0.380532
C	-0.763385	-0.26866	-0.913757
C	0.382239	0.579593	-1.00392
C	0.934271	0.595294	0.243232
O	0.2189	-0.178575	1.10136
H	-1.51541	-1.36153	0.90561
H	-1.46513	-0.524757	-1.72374
H	0.745348	1.11194	-1.8977
H	1.82318	1.11046	0.64286
C	5.6648	-0.362167	0.901091
C	5.05094	0.865102	0.766476
N	4.36298	0.942169	-0.398551
C	4.54935	-0.232821	-0.984459
N	5.32737	-1.0543	-0.24052
H	6.29681	-0.778104	1.70178
H	5.09211	1.69634	1.48911
H	4.139	-0.544266	-1.95855
H	5.61814	-2.03216	-0.486506
