18
  This energy is -1.4045 and Call times are: 55541
C	0.504277	0.317162	0.96515
C	-0.734071	-0.254075	0.941528
C	-1.0214	-0.507871	-0.434389
C	0.0667269	-0.0693227	-1.13011
O	1.0082	0.4376	-0.29126
H	1.12742	0.677434	1.8001
H	-1.38036	-0.474599	1.80626
H	-1.93477	-0.964298	-0.848556
H	0.290076	-0.0621834	-2.2096
C	4.01211	-0.368619	1.11422
C	4.16537	0.931874	0.682509
N	4.23227	0.993188	-0.669628
C	4.12095	-0.264484	-1.0752
N	3.98599	-1.12347	-0.0371692
H	3.92278	-0.796085	2.12557
H	4.22886	1.82703	1.32245
H	4.132	-0.612254	-2.12075
H	3.88137	-2.16589	-0.0978852
