18
  This energy is -0.73 and Call times are: 179017
C	-0.236898	-0.121688	1.10248
C	0.818895	0.619702	0.659748
C	0.787008	0.533252	-0.765603
C	-0.285455	-0.253334	-1.06805
O	-0.922302	-0.662164	0.0607944
H	-0.601898	-0.339523	2.11962
H	1.5471	1.17205	1.27515
H	1.48557	1.00525	-1.47505
H	-0.694824	-0.591456	-2.03415
C	4.83168	0.123251	-0.0702994
C	5.54019	-1.0596	-0.0654962
N	6.87266	-0.830684	0.0272947
C	6.99035	0.489169	0.0798565
N	5.78798	1.10952	0.0243554
H	3.75071	0.326194	-0.132309
H	5.11378	-2.0741	-0.127322
H	7.93336	1.05366	0.159266
H	5.61685	2.14459	0.0487771
