18
  This energy is -1.2757 and Call times are: 22604
C	-0.525595	-0.78035	-0.633406
C	0.715157	-0.304689	-0.941065
C	1.03222	0.647064	0.0756737
C	-0.042774	0.668986	0.914893
O	-1.00355	-0.196633	0.497012
H	-1.16747	-1.52503	-1.13211
H	1.34403	-0.594919	-1.79802
H	1.9558	1.24148	0.163768
H	-0.243489	1.24857	1.83089
C	4.63637	-0.358405	1.06038
C	4.18433	-0.803973	-0.163654
N	4.82331	-0.174165	-1.17931
C	5.66855	0.658951	-0.587605
N	5.59385	0.585335	0.762429
H	4.35389	-0.63683	2.08811
H	3.40857	-1.5686	-0.332134
H	6.36505	1.34545	-1.09538
H	6.15786	1.14126	1.45098
