18
  This energy is -1.1658 and Call times are: 57623
C	0.492105	0.681905	-0.761078
C	-0.859615	0.509919	-0.700666
C	-1.08958	-0.407538	0.369617
C	0.141912	-0.715206	0.868758
O	1.11946	-0.0587991	0.190128
H	1.12204	1.2955	-1.42586
H	-1.61862	0.981784	-1.34514
H	-2.06234	-0.788443	0.719965
H	0.451877	-1.37817	1.69317
C	4.63122	0.624124	0.99729
C	4.06123	1.00424	-0.199275
N	4.20937	0.039469	-1.13937
C	4.86875	-0.935456	-0.528342
N	5.1463	-0.630991	0.761565
H	4.70432	1.14073	1.9675
H	3.54575	1.95734	-0.401099
H	5.17374	-1.89377	-0.978722
H	5.65663	-1.23581	1.45078
