18
  This energy is -1.0457 and Call times are: 181491
C	0.191642	0.889574	-0.677002
C	0.114451	1.0074	0.67966
C	-0.133233	-0.309917	1.17307
C	-0.185533	-1.11644	0.0743639
O	0.0107873	-0.400577	-1.06406
H	0.368484	1.63787	-1.46696
H	0.221216	1.92946	1.27338
H	-0.256688	-0.612294	2.22541
H	-0.353318	-2.20106	-0.0290663
C	4.64861	1.0676	-0.203909
C	3.95048	-0.0813138	0.102282
N	4.78935	-1.1317	0.273979
C	6.00329	-0.636311	0.0750592
N	5.97157	0.68574	-0.216086
H	4.30894	2.09562	-0.40722
H	2.85651	-0.171148	0.202385
H	6.94997	-1.19754	0.130273
H	6.79743	1.30238	-0.413483
