18
  This energy is -1.2442 and Call times are: 211767
C	0.83304	0.575713	-0.51088
C	-0.320057	1.17404	-0.0952577
C	-1.10891	0.137729	0.491151
C	-0.368238	-1.00239	0.382108
O	0.820686	-0.753377	-0.227369
H	1.72637	0.980409	-1.0143
H	-0.588226	2.23839	-0.191923
H	-2.11032	0.23883	0.939547
H	-0.57252	-2.03963	0.694622
C	4.49966	-0.475271	-0.720184
C	4.30861	-0.0892167	0.589627
N	5.44695	0.420214	1.11989
C	6.34079	0.350461	0.142752
N	5.81837	-0.182234	-0.987247
H	3.81342	-0.922863	-1.45658
H	3.36978	-0.169136	1.16153
H	7.39209	0.675457	0.200916
H	6.32193	-0.341645	-1.89404
