18
  This energy is -2.2844 and Call times are: 44811
C	0.454388	0.605083	0.844871
C	0.685199	0.895346	-0.467703
C	-0.0477386	-0.0746484	-1.21739
C	-0.661735	-0.872032	-0.296759
O	-0.366106	-0.471343	0.967781
H	0.810602	1.08204	1.77271
H	1.30901	1.71072	-0.867851
H	-0.105191	-0.160874	-2.31437
H	-1.32533	-1.74473	-0.41204
C	4.16105	0.406483	-1.10279
C	4.89964	0.835841	-0.0205343
N	4.5714	0.146882	1.09933
C	3.63273	-0.706641	0.713283
N	3.35013	-0.589311	-0.605792
H	4.1553	0.728354	-2.15631
H	5.6635	1.6304	-0.0276797
H	3.11872	-1.43971	1.35564
H	2.64722	-1.15007	-1.14683
