18
  This energy is -1.9351 and Call times are: 89423
C	0.629897	-0.115528	0.936101
C	0.463478	1.08543	0.311304
C	-0.381347	0.828375	-0.81133
C	-0.656611	-0.506978	-0.773457
O	-0.0471695	-1.09914	0.287175
H	1.19784	-0.398113	1.83768
H	0.892593	2.05507	0.61092
H	-0.737491	1.55907	-1.5552
H	-1.26416	-1.14723	-1.43392
C	4.17687	-0.238425	0.969515
C	5.52061	-0.47488	0.770513
N	5.90924	-0.0758978	-0.464919
C	4.81077	0.406241	-1.0302
N	3.73934	0.330567	-0.205643
H	3.52284	-0.428455	1.83535
H	6.21665	-0.926219	1.49623
H	4.735	0.827007	-2.0458
H	2.7616	0.645362	-0.420596
