18
  This energy is -0.6227 and Call times are: 202929
C	0.93852	0.30532	-0.558893
C	-0.160339	1.10971	-0.482424
C	-1.11957	0.388659	0.29223
C	-0.522203	-0.792695	0.620757
O	0.735076	-0.86054	0.109232
H	1.91444	0.445696	-1.05196
H	-0.283111	2.11042	-0.926932
H	-2.13394	0.719169	0.567758
H	-0.880952	-1.65558	1.20554
C	5.48062	0.884132	0.767563
C	4.92497	0.80073	-0.49158
N	5.27054	-0.358602	-1.10235
C	6.03765	-0.99201	-0.225451
N	6.1945	-0.283752	0.917948
H	5.42056	1.66584	1.54142
H	4.28092	1.55631	-0.970279
H	6.51033	-1.97694	-0.369433
H	6.75343	-0.569787	1.75881
