18
  This energy is -0.8415 and Call times are: 112916
C	0.351826	-0.672825	-0.842571
C	-0.960403	-0.342774	-0.670835
C	-1.00308	0.50602	0.47714
C	0.286838	0.619725	0.905574
O	1.12767	-0.0937549	0.111243
H	0.854914	-1.30269	-1.59452
H	-1.8128	-0.66473	-1.2904
H	-1.89515	0.97301	0.924613
H	0.730545	1.17087	1.75092
C	4.52835	-0.655149	0.108504
C	5.82156	-1.03943	0.393266
N	6.695	-0.0316154	0.152624
C	5.9465	0.974068	-0.279781
N	4.63302	0.647911	-0.32424
H	3.57286	-1.19861	0.18077
H	6.14001	-2.02583	0.768044
H	6.30896	1.9712	-0.577415
H	3.8446	1.26928	-0.63009
