18
  This energy is -0.5362 and Call times are: 85577
C	-1.02941	0.193624	0.434998
C	0.108917	0.29405	1.17964
C	1.18461	-0.0189999	0.293641
C	0.608664	-0.28309	-0.914214
O	-0.742898	-0.157967	-0.846137
H	-2.08964	0.345099	0.696181
H	0.183612	0.561723	2.24588
H	2.25915	-0.0423049	0.536348
H	1.04515	-0.567194	-1.88582
C	7.38299	-0.587975	0.270378
C	7.16181	0.765244	0.415364
N	5.91568	1.10351	0.00397744
C	5.36588	-0.0355243	-0.394705
N	6.21054	-1.0845	-0.254041
H	8.26242	-1.21196	0.495756
H	7.87906	1.50356	0.809438
H	4.3478	-0.158124	-0.798064
H	6.01042	-2.08535	-0.497989
