18
  This energy is -0.9808 and Call times are: 176744
C	0.0172934	-0.18669	1.11859
C	-0.344155	-1.14969	0.222845
C	-0.241724	-0.54295	-1.06614
C	0.173276	0.737257	-0.844292
O	0.336482	0.972116	0.484323
H	0.0872881	-0.200703	2.21866
H	-0.652023	-2.18359	0.447283
H	-0.454384	-1.01289	-2.03981
H	0.385793	1.56746	-1.53772
C	6.02558	-0.183314	-0.703411
C	6.04562	0.346511	0.569392
N	4.79614	0.415986	1.08947
C	4.00397	-0.0688961	0.142911
N	4.69762	-0.444005	-0.957875
H	6.83533	-0.386514	-1.42213
H	6.93927	0.679891	1.12176
H	2.90854	-0.17179	0.203617
H	4.29965	-0.855099	-1.83758
