18
  This energy is -0.7418 and Call times are: 52323
C	0.454395	0.0409879	-1.03839
C	1.06213	0.599595	0.0474258
C	0.196503	0.344175	1.15448
C	-0.863792	-0.347969	0.647442
O	-0.722859	-0.542026	-0.690277
H	0.753157	-0.00885944	-2.09834
H	2.02355	1.13755	0.0668447
H	0.353324	0.644718	2.20289
H	-1.76947	-0.753209	1.12784
C	5.2562	-0.106857	-1.12048
C	4.99087	0.945722	-0.270291
N	5.54097	0.738227	0.950714
C	6.14526	-0.438599	0.858353
N	6.00246	-0.988483	-0.370804
H	4.97612	-0.284976	-2.17089
H	4.41237	1.85115	-0.516032
H	6.70667	-0.944219	1.66048
H	6.38697	-1.91071	-0.691597
