18
  This energy is -1.1697 and Call times are: 129434
C	0.491889	-0.899384	-0.48534
C	1.07897	-0.206243	0.53214
C	0.166838	0.839674	0.870058
C	-0.897115	0.693347	0.0292454
O	-0.715493	-0.363792	-0.80531
H	0.826096	-1.77975	-1.0585
H	2.0563	-0.410942	0.997987
H	0.296351	1.60715	1.65
H	-1.83205	1.26827	-0.0737359
C	4.88726	0.68019	-0.90809
C	5.81499	-0.339775	-0.919139
N	5.92557	-0.912981	0.303856
C	5.06969	-0.251136	1.0707
N	4.41913	0.719421	0.386323
H	4.53868	1.35827	-1.70322
H	6.40654	-0.67234	-1.78766
H	4.87987	-0.43616	2.14027
H	3.69591	1.37659	0.768868
