18
  This energy is -1.132 and Call times are: 104854
C	0.0676556	0.138724	-1.12365
C	-0.451201	1.09384	-0.299686
C	-0.365591	0.558672	1.02182
C	0.198023	-0.676239	0.888756
O	0.4691	-0.949072	-0.414736
H	0.205026	0.112621	-2.21713
H	-0.85383	2.07665	-0.593061
H	-0.688647	1.04404	1.95678
H	0.454511	-1.44698	1.63402
C	4.40849	0.0217832	-1.01722
C	4.02047	-0.596425	0.152571
N	4.94409	-0.419538	1.12835
C	5.90145	0.305649	0.566053
N	5.62526	0.597507	-0.727055
H	3.9211	0.0904774	-2.00275
H	3.09063	-1.16692	0.309966
H	6.82633	0.650577	1.0558
H	6.22396	1.15596	-1.38352
