18
  This energy is -0.9912 and Call times are: 91158
C	0.115868	-0.506585	-1.00814
C	-1.09795	-0.121996	-0.519147
C	-0.836853	0.469177	0.754612
C	0.513466	0.393658	0.931551
O	1.11119	-0.199392	-0.135232
H	0.400706	-1.00157	-1.95107
H	-2.07878	-0.242515	-1.00652
H	-1.575	0.898148	1.45119
H	1.16159	0.721231	1.76093
C	4.5843	-0.693521	-0.943788
C	5.37968	-0.922631	0.158947
N	5.26982	0.0849682	1.05849
C	4.40955	0.93593	0.515876
N	3.96751	0.511538	-0.691631
H	4.41907	-1.28307	-1.85958
H	6.03085	-1.79692	0.321605
H	4.06839	1.885	0.959853
H	3.28496	1.00622	-1.31667
