18
  This energy is -1.3769 and Call times are: 169065
C	0.115811	1.1252	-0.0831785
C	-0.353054	0.361195	-1.11121
C	-0.354106	-0.983643	-0.630035
C	0.114208	-0.922734	0.649553
O	0.406136	0.357484	1.00003
H	0.28704	2.21088	0.00188422
H	-0.666704	0.709697	-2.10834
H	-0.668734	-1.88516	-1.17992
H	0.283973	-1.70827	1.40412
C	4.00188	0.857924	-0.109807
C	3.76243	-0.499946	-0.109472
N	4.91393	-1.19913	0.0378564
C	5.86412	-0.278513	0.128575
N	5.36493	0.977444	0.0450749
H	3.32146	1.71891	-0.206089
H	2.77943	-0.987666	-0.212896
H	6.94182	-0.469109	0.256906
H	5.912	1.87186	0.0897993
