18
  This energy is -1.2224 and Call times are: 58040
C	-0.00118295	-0.449038	1.04152
C	0.628415	0.726126	0.753475
C	0.408487	0.956473	-0.638894
C	-0.336091	-0.0982622	-1.07879
O	-0.595514	-0.96635	-0.0658062
H	-0.0981768	-1.01497	1.98257
H	1.19125	1.36653	1.45147
H	0.766898	1.81098	-1.23509
H	-0.739093	-0.343685	-2.07509
C	4.3868	0.736321	-0.578161
C	4.02262	-0.410847	0.094536
N	5.10168	-1.01701	0.64654
C	6.13137	-0.248806	0.317542
N	5.75219	0.821009	-0.42091
H	3.79084	1.47381	-1.13894
H	3.0006	-0.812001	0.19147
H	7.1844	-0.423314	0.591219
H	6.37891	1.57191	-0.801205
