18
  This energy is -1.2191 and Call times are: 36814
C	-0.117667	0.175735	1.1143
C	-0.00439001	-1.07405	0.579904
C	0.124494	-0.886154	-0.830133
C	0.0786	0.461862	-1.03291
O	-0.0689779	1.12578	0.143711
H	-0.236289	0.517623	2.1556
H	-0.0109358	-2.03215	1.12405
H	0.237745	-1.66961	-1.5966
H	0.139308	1.06519	-1.95354
C	4.16007	-0.87613	0.264565
C	3.82298	0.394715	-0.150727
N	4.9289	1.14736	-0.367489
C	5.94819	0.346482	-0.0877336
N	5.53666	-0.884538	0.298042
H	3.5385	-1.7461	0.5298
H	2.80161	0.782029	-0.297834
H	7.01628	0.610533	-0.148574
H	6.14948	-1.69161	0.570696
