18
  This energy is -1.4973 and Call times are: 75925
C	0.493794	-1.01831	0.0749826
C	-0.64595	-0.707246	0.756597
C	-0.952956	0.643726	0.409122
C	0.0262835	1.03897	-0.454157
O	0.918283	0.0364805	-0.669495
H	1.09288	-1.94286	0.0356663
H	-1.21355	-1.36332	1.43593
H	-1.80591	1.24337	0.765478
H	0.198197	1.99415	-0.976952
C	4.15081	-0.702512	-0.942947
C	4.5919	0.603329	-0.906031
N	4.51087	1.11119	0.347775
C	4.02138	0.124158	1.08588
N	3.78759	-0.99066	0.353677
H	4.0723	-1.42309	-1.77249
H	4.96715	1.18814	-1.76162
H	3.81466	0.164015	2.1675
H	3.40294	-1.90105	0.706495
