18
  This energy is -1.4344 and Call times are: 28254
C	0.787493	0.801225	-0.155869
C	-0.477728	0.914138	-0.652699
C	-1.16179	-0.274737	-0.254261
C	-0.254205	-1.0092	0.450876
O	0.941608	-0.367221	0.520885
H	1.65869	1.47417	-0.214394
H	-0.888131	1.7507	-1.24077
H	-2.20803	-0.543223	-0.471985
H	-0.334818	-1.99046	0.946738
C	4.07138	-0.771607	-0.321093
C	4.22841	-0.195225	0.921594
N	5.28866	0.648638	0.938369
C	5.78748	0.595967	-0.289242
N	5.08856	-0.24643	-1.08641
H	3.33242	-1.49423	-0.702261
H	3.59568	-0.373145	1.80638
H	6.66331	1.15379	-0.658005
H	5.28426	-0.458995	-2.09526
