18
  This energy is -1.3533 and Call times are: 80540
C	0.425696	0.391094	0.975822
C	-0.554844	1.04739	0.291574
C	-0.820223	0.255453	-0.867102
C	0.0215736	-0.81487	-0.78862
O	0.789728	-0.748247	0.330537
H	0.941849	0.627928	1.92068
H	-1.04235	1.99419	0.5744
H	-1.5544	0.466162	-1.66126
H	0.168479	-1.67994	-1.45595
C	4.66054	1.0413	0.297822
C	4.61394	-0.0959373	1.07607
N	4.0111	-1.11491	0.41668
C	3.68496	-0.611727	-0.766141
N	4.05529	0.685159	-0.886674
H	5.06799	2.04532	0.496449
H	5.0045	-0.199456	2.10155
H	3.17381	-1.14917	-1.58107
H	3.9092	1.30187	-1.72308
