18
  This energy is -0.6859 and Call times are: 161444
C	-1.04755	-0.232829	-0.367187
C	-0.0171647	0.0343345	-1.22001
C	1.12254	0.274217	-0.39318
C	0.688005	0.132466	0.89191
O	-0.63484	-0.177208	0.926485
H	-2.10695	-0.474108	-0.55347
H	-0.0558016	0.0599176	-2.32089
H	2.14326	0.52277	-0.725537
H	1.21439	0.224961	1.85607
C	5.1075	-0.00239514	0.437648
C	6.1224	-0.885045	0.74105
N	7.25091	-0.587517	0.0522446
C	6.9373	0.475667	-0.675705
N	5.65603	0.866943	-0.478624
H	4.0684	0.0663211	0.796942
H	6.06058	-1.73122	1.44462
H	7.60798	1.00735	-1.36978
H	5.17259	1.67802	-0.936563
