18
  This energy is -0.9577 and Call times are: 61926
C	-0.17078	0.846348	0.735479
C	0.249772	-0.389923	1.12936
C	0.346668	-1.16859	-0.0641221
C	-0.0232245	-0.33941	-1.08197
O	-0.342547	0.895083	-0.611789
H	-0.381993	1.76382	1.30896
H	0.469693	-0.720373	2.15724
H	0.656654	-2.2228	-0.145581
H	-0.0996156	-0.50537	-2.16911
C	4.54715	0.435052	0.877277
C	4.11514	-0.371014	-0.154596
N	5.13578	-0.686392	-0.988465
C	6.19694	-0.0782902	-0.475851
N	5.89379	0.61093	0.649612
H	4.00954	0.881086	1.72908
H	3.08528	-0.730672	-0.312342
H	7.21997	-0.104541	-0.884435
H	6.55802	1.17232	1.23689
