18
  This energy is -0.9446 and Call times are: 165764
C	-0.30586	-0.784552	-0.759821
C	-0.146093	-1.07273	0.563735
C	0.236337	0.153928	1.18758
C	0.276506	1.08341	0.19017
O	-0.0518293	0.527686	-1.00581
H	-0.593675	-1.41641	-1.61607
H	-0.283736	-2.05097	1.05179
H	0.454159	0.315855	2.25548
H	0.520805	2.15832	0.201934
C	3.99663	-0.176688	0.369393
C	5.04158	0.343745	1.10314
N	6.17467	0.407454	0.362484
C	5.83395	-0.0716337	-0.826218
N	4.53105	-0.43753	-0.872601
H	2.94559	-0.373327	0.63433
H	4.99822	0.674405	2.15367
H	6.49935	-0.176655	-1.69826
H	4.02449	-0.842721	-1.69751
