18
  This energy is -0.7327 and Call times are: 180595
C	0.0287141	-0.215859	-1.1131
C	0.921449	0.618931	-0.507684
C	0.566016	0.634666	0.875622
C	-0.512543	-0.191899	0.993416
O	-0.85428	-0.719966	-0.211314
H	-0.082639	-0.529049	-2.16417
H	1.74741	1.1685	-0.987124
H	1.0616	1.19886	1.68196
H	-1.11845	-0.483196	1.86707
C	6.2817	0.533659	0.79724
C	6.2861	-0.805316	0.468197
N	5.36931	-1.0754	-0.492557
C	4.79831	0.0915817	-0.758528
N	5.3138	1.09299	-0.00682894
H	6.87891	1.10889	1.52249
H	6.93438	-1.58133	0.906818
H	3.99773	0.269225	-1.49456
H	5.0302	2.10304	-0.0317814
