18
  This energy is -1.4411 and Call times are: 144563
C	0.368626	1.06899	-0.0881533
C	-0.702109	0.726955	0.684446
C	-0.853889	-0.685808	0.538914
C	0.137494	-1.08238	-0.30977
O	0.893641	-0.0236317	-0.7026
H	0.849372	2.04193	-0.281859
H	-1.32279	1.40181	1.29553
H	-1.61565	-1.32411	1.01473
H	0.407053	-2.07516	-0.70597
C	4.27269	0.984268	-0.150961
C	5.62276	0.820438	-0.378123
N	6.0149	-0.446531	-0.0996798
C	4.91229	-1.06634	0.298707
N	3.83485	-0.24625	0.285286
H	3.61448	1.86021	-0.265066
H	6.32091	1.59372	-0.737943
H	4.83761	-2.12028	0.611524
H	2.85302	-0.499534	0.555682
