18
  This energy is -0.7648 and Call times are: 122887
C	-0.926609	-0.650193	0.0710311
C	-0.875046	0.464841	-0.712815
C	0.435759	1.00485	-0.538767
C	1.0695	0.172144	0.336072
O	0.252292	-0.844075	0.718808
H	-1.73263	-1.38023	0.251703
H	-1.67938	0.866751	-1.34969
H	0.849807	1.9087	-1.01386
H	2.08734	0.193487	0.758914
C	6.20295	-0.115585	-0.936804
C	5.58922	1.03936	-0.500243
N	4.85001	0.809455	0.612055
C	5.00455	-0.483207	0.864574
N	5.81145	-1.08531	-0.0409467
H	6.86838	-0.309568	-1.79302
H	5.66657	2.03442	-0.967925
H	4.54947	-1.03995	1.69954
H	6.08645	-2.09791	-0.0574382
