18
  This energy is -1.5607 and Call times are: 21785
C	1.04768	0.0166174	-0.434158
C	0.730306	0.648268	0.732318
C	-0.660572	0.402088	0.944382
C	-1.07036	-0.358268	-0.111224
O	-0.0400498	-0.603241	-0.962962
H	1.9985	-0.0653566	-0.985945
H	1.40769	1.22928	1.3786
H	-1.276	0.754275	1.78777
H	-2.05481	-0.782777	-0.367944
C	4.99616	0.992709	-0.632145
C	5.74275	-0.140592	-0.875807
N	5.49897	-1.09563	0.0542345
C	4.60454	-0.556863	0.871759
N	4.26912	0.701391	0.500435
H	4.93289	1.95383	-1.16673
H	6.45295	-0.286256	-1.70602
H	4.16168	-1.03979	1.7577
H	3.58548	1.33442	0.983307
