18
  This energy is -1.5439 and Call times are: 126278
C	0.718918	-0.874664	0.0672361
C	0.262941	-0.393938	-1.12497
C	-0.607633	0.691298	-0.801735
C	-0.606799	0.777942	0.559465
O	0.197964	-0.170779	1.10655
H	1.40768	-1.70136	0.306889
H	0.514415	-0.766203	-2.13109
H	-1.16535	1.32775	-1.50741
H	-1.12935	1.46125	1.24887
C	5.32143	-0.0354125	-1.09829
C	6.04881	-0.117469	0.0701853
N	5.24041	-0.0425592	1.15526
C	4.01618	0.085483	0.661818
N	4.01213	0.0951472	-0.692243
H	5.63249	-0.0598707	-2.15478
H	7.14242	-0.229383	0.149727
H	3.08705	0.176102	1.24725
H	3.17172	0.184981	-1.31426
