18
  This energy is -0.5403 and Call times are: 73813
C	-0.850055	-0.739072	0.132591
C	-0.908221	0.2881	-0.762903
C	0.331415	0.986513	-0.637844
C	1.03767	0.324477	0.323032
O	0.331271	-0.732035	0.804476
H	-1.5734	-1.53227	0.383307
H	-1.74057	0.529733	-1.44327
H	0.651298	1.87732	-1.20197
H	2.03916	0.503053	0.747757
C	5.16782	-0.147428	-0.285545
C	6.25221	-0.226985	-1.13344
N	7.41083	-0.00250243	-0.467307
C	7.0466	0.215488	0.789053
N	5.70426	0.139011	0.94992
H	4.08837	-0.270279	-0.467822
H	6.21934	-0.442339	-2.21389
H	7.72208	0.435726	1.63134
H	5.17332	0.272487	1.84521
