18
  This energy is -1.4083 and Call times are: 40503
C	0.523204	0.0678185	-1.00402
C	-0.530391	0.868626	-0.673841
C	-0.909902	0.489467	0.649914
C	-0.0547185	-0.509567	1.0118
O	0.827189	-0.779979	0.0137423
H	1.13449	0.00416222	-1.91919
H	-0.993833	1.64814	-1.29968
H	-1.7261	0.916556	1.25449
H	0.0285116	-1.10078	1.93851
C	4.429	-1.05481	0.493175
C	3.75866	0.113988	0.785896
N	4.21178	1.14058	0.0260947
C	5.15962	0.610666	-0.735092
N	5.32837	-0.71054	-0.491105
H	4.33289	-2.07323	0.902001
H	2.95618	0.234917	1.53172
H	5.76145	1.14501	-1.48776
H	6.01373	-1.35068	-0.962012
