18
  This energy is -1.9964 and Call times are: 47887
C	-0.469667	0.864802	0.563854
C	0.233302	1.04192	-0.591498
C	0.659454	-0.260741	-0.99349
C	0.17928	-1.11889	-0.0483035
O	-0.512727	-0.448644	0.91029
H	-0.981385	1.58272	1.22566
H	0.431837	1.99434	-1.10877
H	1.25409	-0.519127	-1.88441
H	0.26051	-2.2135	0.0541723
C	4.22875	-0.18751	-1.01174
C	5.56158	-0.43155	-0.756466
N	5.88419	-0.0984037	0.516896
C	4.75579	0.350604	1.04956
N	3.72859	0.316956	0.167898
H	3.62107	-0.332299	-1.91909
H	6.29621	-0.842038	-1.46828
H	4.62582	0.716316	2.08087
H	2.7396	0.617832	0.348523
