18
  This energy is -0.9166 and Call times are: 47076
C	-0.123092	-0.141871	1.11854
C	-0.990846	0.604898	0.377109
C	-0.508848	0.545502	-0.966121
C	0.610898	-0.23232	-0.926947
O	0.861303	-0.660698	0.338281
H	-0.0968413	-0.377912	2.19503
H	-1.88106	1.14354	0.739716
H	-0.951044	1.02894	-1.85204
H	1.3078	-0.551005	-1.71942
C	4.28467	-0.711796	0.20153
C	5.10301	-0.71012	-0.908187
N	6.05917	0.245064	-0.80876
C	5.83487	0.83372	0.3582
N	4.77562	0.292674	1.00539
H	3.41665	-1.33588	0.467223
H	5.02063	-1.38102	-1.7788
H	6.41594	1.66589	0.787239
H	4.39993	0.583041	1.94124
