18
  This energy is -0.698 and Call times are: 193271
C	1.07888	0.00510452	0.34984
C	0.188802	-0.951648	0.740681
C	-1.04523	-0.622183	0.101355
C	-0.800311	0.506817	-0.62373
O	0.491863	0.903882	-0.483598
H	2.14388	0.155347	0.591604
H	0.381866	-1.8039	1.41186
H	-1.99919	-1.1682	0.178287
H	-1.45234	1.11548	-1.27152
C	6.3345	-0.875346	0.57721
C	6.62834	-0.419201	-0.69036
N	5.81268	0.604046	-1.04273
C	5.01585	0.78202	0.00226242
N	5.29071	-0.0855725	1.00492
H	6.77946	-1.67926	1.18488
H	7.41428	-0.810093	-1.35696
H	4.21413	1.53332	0.0861428
H	4.80182	-0.145242	1.93158
