18
  This energy is -1.1456 and Call times are: 167162
C	-1.10716	0.246151	0.00370278
C	-0.643983	-1.03651	0.0285788
C	0.780876	-0.938036	0.0145113
C	1.06263	0.396112	-0.0177189
O	-0.0786201	1.13402	-0.0247473
H	-2.13144	0.653706	0.00310045
H	-1.24537	-1.95943	0.0542577
H	1.50388	-1.76942	0.0271143
H	2.0209	0.940687	-0.0378948
C	4.68711	-1.00515	0.334225
C	4.65348	0.202099	0.999479
N	5.35337	1.14919	0.328885
C	5.81941	0.531836	-0.74829
N	5.44506	-0.768796	-0.790866
H	4.24021	-1.98311	0.573829
H	4.13676	0.406711	1.95131
H	6.43991	0.985015	-1.53813
H	5.68626	-1.46459	-1.5385
