18
  This energy is -1.2646 and Call times are: 203700
C	-0.118135	-1.10084	-0.246161
C	-0.987397	-0.153288	-0.701026
C	-0.511977	1.09201	-0.187862
C	0.605838	0.795503	0.53529
O	0.86112	-0.539124	0.510506
H	-0.0873854	-2.19352	-0.388858
H	-1.87441	-0.315031	-1.33439
H	-0.957091	2.08775	-0.344238
H	1.29809	1.43553	1.10661
C	4.30143	-0.818436	0.683143
C	5.22883	-1.02712	-0.31562
N	5.58904	0.141396	-0.899861
C	4.88777	1.07145	-0.265956
N	4.0963	0.543146	0.697399
H	3.78998	-1.51912	1.36211
H	5.64448	-1.99989	-0.625125
H	4.91566	2.1545	-0.46714
H	3.4496	1.07031	1.3339
