18
  This energy is -0.9704 and Call times are: 96965
C	0.85943	0.406639	-0.618406
C	1.02992	-0.0581962	0.652513
C	-0.262703	-0.477777	1.09206
C	-1.10898	-0.232302	0.0509459
O	-0.440626	0.30782	-1.00195
H	1.57373	0.827765	-1.34482
H	1.97147	-0.10129	1.22322
H	-0.522626	-0.910868	2.07133
H	-2.19323	-0.394981	-0.0638774
C	4.81231	-0.942417	0.389313
C	4.92338	0.28065	1.01614
N	5.67544	1.13823	0.284393
C	6.0296	0.449803	-0.792299
N	5.53404	-0.810254	-0.775947
H	4.28824	-1.86666	0.680289
H	4.47432	0.559656	1.98328
H	6.65095	0.820073	-1.62359
H	5.67311	-1.5463	-1.5109
