18
  This energy is -0.5563 and Call times are: 126654
C	-0.631129	-0.785937	-0.519981
C	-1.05001	0.503003	-0.366537
C	0.00261268	1.17649	0.325213
C	0.971818	0.239648	0.533422
O	0.601543	-0.964563	0.0237329
H	-1.11091	-1.65941	-0.991269
H	-2.0045	0.936078	-0.706382
H	0.0265325	2.23556	0.628345
H	1.95666	0.303265	1.02464
C	5.61473	0.858503	-0.552746
C	5.08609	-0.309308	-0.0449088
N	6.04821	-1.07264	0.527941
C	7.16946	-0.381012	0.376061
N	6.96064	0.79074	-0.269678
H	5.14411	1.70475	-1.07802
H	4.0277	-0.614762	-0.0815873
H	8.17129	-0.686168	0.718773
H	7.68584	1.51048	-0.509088
