18
  This energy is -1.2905 and Call times are: 159674
C	-0.773719	0.37634	-0.739005
C	-0.443408	1.0687	0.388781
C	0.549998	0.285232	1.05168
C	0.739048	-0.816735	0.270465
O	-0.0612159	-0.777592	-0.827286
H	-1.49053	0.594966	-1.54748
H	-0.857741	2.03427	0.720594
H	1.05903	0.522572	1.99965
H	1.40446	-1.68823	0.384348
C	5.42824	-0.835803	0.0231827
C	4.79758	-0.326502	-1.09217
N	3.89577	0.625926	-0.751395
C	3.9667	0.707176	0.570343
N	4.87627	-0.154074	1.08467
H	6.20487	-1.60932	0.132991
H	4.97711	-0.62921	-2.13668
H	3.37511	1.38034	1.21152
H	5.11543	-0.278747	2.09883
