18
  This energy is -0.6569 and Call times are: 135556
C	0.173507	-0.773564	-0.811107
C	-0.614062	-1.01836	0.275257
C	-0.585676	0.177269	1.05615
C	0.216733	1.04715	0.37804
O	0.689033	0.483053	-0.764652
H	0.443016	-1.40258	-1.67538
H	-1.16021	-1.94765	0.503786
H	-1.10544	0.359298	2.01051
H	0.525739	2.08173	0.600303
C	4.84493	0.476342	-0.975244
C	5.63328	1.10729	-0.0363308
N	5.98144	0.25731	0.960078
C	5.41125	-0.896551	0.640524
N	4.71473	-0.815971	-0.517902
H	4.38277	0.843277	-1.90546
H	5.95708	2.16059	-0.0600238
H	5.47155	-1.83218	1.21948
H	4.17781	-1.5904	-0.979687
