18
  This energy is -1.0579 and Call times are: 29120
C	0.61649	-0.48673	-0.81819
C	1.14891	0.407229	0.0637062
C	0.0773144	0.790622	0.92673
C	-1.01534	0.0971041	0.49603
O	-0.704245	-0.687949	-0.568827
H	1.06636	-1.04226	-1.65739
H	2.19165	0.761166	0.102596
H	0.124016	1.50092	1.76779
H	-2.0565	0.075028	0.857641
C	5.82004	0.218498	-1.15627
C	6.88502	0.284803	-0.283012
N	6.503	-0.0306876	0.978351
C	5.20596	-0.291721	0.887956
N	4.74688	-0.155396	-0.378634
H	5.75217	0.404711	-2.2399
H	7.9222	0.554632	-0.540511
H	4.54437	-0.587208	1.71815
H	3.76123	-0.305856	-0.705919
