18
  This energy is -1.0221 and Call times are: 100762
C	0.219513	0.656915	-0.898152
C	-0.890406	0.825707	-0.12358
C	-0.814533	-0.175866	0.891906
C	0.335054	-0.868289	0.648238
O	0.97918	-0.373217	-0.441264
H	0.577789	1.19703	-1.78987
H	-1.68305	1.57986	-0.254213
H	-1.53665	-0.352667	1.70516
H	0.798901	-1.72176	1.16947
C	5.59908	0.04492	1.10626
C	6.2809	0.411	-0.0349028
N	5.5177	0.228619	-1.13979
C	4.36679	-0.24879	-0.685796
N	4.36606	-0.377729	0.662152
H	5.8942	0.054925	2.16755
H	7.30984	0.803455	-0.080801
H	3.49112	-0.520723	-1.29692
H	3.57663	-0.732136	1.25583
