18
  This energy is -0.6657 and Call times are: 164093
C	0.429849	-0.766714	0.716785
C	-0.894187	-0.733131	0.390943
C	-1.04461	0.35468	-0.52238
C	0.200785	0.889813	-0.674032
O	1.11349	0.217352	0.0754867
H	1.00194	-1.43226	1.38387
H	-1.68555	-1.4068	0.75702
H	-1.97578	0.692117	-1.00523
H	0.563581	1.73785	-1.27774
C	5.75507	-0.723853	0.926335
C	4.64936	-0.462093	0.145283
N	4.94411	0.422558	-0.838092
C	6.22779	0.708524	-0.667746
N	6.76202	0.0424947	0.38325
H	5.89205	-1.37938	1.80101
H	3.64421	-0.89571	0.2737
H	6.82586	1.39897	-1.28404
H	7.75425	0.0991026	0.720208
