18
  This energy is -0.8958 and Call times are: 182099
C	-0.00572813	-0.113065	-1.12853
C	1.10013	0.29227	-0.440665
C	0.719071	0.311748	0.935756
C	-0.586004	-0.0834045	0.967493
O	-1.0448	-0.3469	-0.28434
H	-0.179237	-0.272245	-2.20548
H	2.08536	0.55154	-0.86042
H	1.35011	0.589122	1.79537
H	-1.28972	-0.215483	1.8057
C	6.24246	0.732306	-0.372941
C	5.27351	0.124856	-1.14319
N	4.46541	-0.655877	-0.385605
C	4.93126	-0.533239	0.849938
N	6.00227	0.293161	0.909888
H	7.05869	1.42297	-0.638058
H	5.14303	0.23594	-2.23199
H	4.52573	-1.02644	1.74801
H	6.54608	0.550358	1.76976
