18
  This energy is -1.6026 and Call times are: 53068
C	-0.689727	-0.180576	-0.882083
C	0.222546	0.833227	-0.863767
C	0.890633	0.735343	0.394881
C	0.327642	-0.329634	1.0346
O	-0.63932	-0.900861	0.269291
H	-1.4229	-0.490661	-1.64468
H	0.406558	1.57552	-1.65701
H	1.69563	1.38665	0.771541
H	0.524043	-0.775916	2.02329
C	5.00879	-0.3385	-1.11083
C	6.18801	-0.445854	-0.404387
N	6.05155	0.0444534	0.851594
C	4.79246	0.454422	0.924048
N	4.12215	0.245288	-0.233769
H	4.74658	-0.626613	-2.14126
H	7.13483	-0.868309	-0.778447
H	4.30969	0.914971	1.80101
H	3.11829	0.482635	-0.426591
