18
  This energy is -0.8168 and Call times are: 212024
C	0.500924	-0.636404	-0.794019
C	-0.174884	0.509391	-1.09536
C	-0.655426	1.0188	0.149505
C	-0.230849	0.139328	1.10168
O	0.476863	-0.87767	0.543226
H	1.03543	-1.35925	-1.43203
H	-0.320401	0.951509	-2.09409
H	-1.2476	1.93441	0.307876
H	-0.364973	0.125276	2.19578
C	6.0202	0.0980693	0.578505
C	4.89416	-0.579519	0.995709
N	3.89979	-0.485263	0.0798251
C	4.40701	0.248011	-0.901835
N	5.6829	0.624221	-0.648515
H	7.00484	0.2384	1.05214
H	4.78142	-1.13472	1.94117
H	3.88756	0.539225	-1.82898
H	6.29799	1.20589	-1.26867
