18
  This energy is -1.1971 and Call times are: 160900
C	0.0486684	1.13308	-0.0124582
C	1.09027	0.352717	-0.420476
C	0.653813	-0.99767	-0.258981
C	-0.615966	-0.923298	0.233466
O	-1.00166	0.370409	0.390225
H	-0.068189	2.22805	0.0390078
H	2.06787	0.693799	-0.797362
H	1.22574	-1.91176	-0.48576
H	-1.34011	-1.70726	0.509635
C	5.22968	-0.0796706	1.15152
C	5.25725	1.06228	0.379293
N	4.93966	0.788483	-0.909381
C	4.71592	-0.518356	-0.936513
N	4.87799	-1.08741	0.28148
H	5.42881	-0.241129	2.22288
H	5.5006	2.07885	0.728901
H	4.43055	-1.10935	-1.82168
H	4.7585	-2.10281	0.517988
