18
  This energy is -0.694 and Call times are: 20150
C	-0.354954	0.74891	0.774302
C	0.843287	0.105313	0.876164
C	0.930575	-0.742232	-0.270207
C	-0.222032	-0.541739	-0.971402
O	-1.01876	0.365795	-0.348014
H	-0.843359	1.49211	1.42574
H	1.59072	0.21627	1.67812
H	1.75914	-1.41906	-0.533795
H	-0.588985	-0.977815	-1.91503
C	7.0507	0.682379	-0.124956
C	7.03236	-0.674125	0.121426
N	5.76195	-1.13806	0.207053
C	4.99508	-0.0734094	0.0145241
N	5.7249	1.04869	-0.190053
H	7.88555	1.38938	-0.254258
H	7.91303	-1.32639	0.238937
H	3.89325	-0.0593437	0.0131576
H	5.35185	2.01384	-0.364937
