18
  This energy is -1.0416 and Call times are: 51971
C	-0.45145	-0.534114	-0.892925
C	-1.21332	0.131365	0.0219871
C	-0.297659	0.663144	0.980575
C	0.942928	0.275684	0.566821
O	0.867786	-0.456301	-0.575791
H	-0.724179	-1.09563	-1.80153
H	-2.31009	0.237163	0.0218519
H	-0.543327	1.26323	1.87144
H	1.94425	0.454086	0.991993
C	5.00014	-0.5111	1.05539
C	5.19058	-1.10629	-0.173688
N	4.99262	-0.221565	-1.18095
C	4.68056	0.91815	-0.579048
N	4.67176	0.795263	0.769437
H	5.07264	-0.911371	2.07914
H	5.46728	-2.15824	-0.351705
H	4.44923	1.87304	-1.07795
H	4.4559	1.55113	1.46466
