18
  This energy is -1.794 and Call times are: 142010
C	-0.82596	0.204593	-0.749888
C	-0.742773	0.861611	0.442497
C	0.412548	0.336904	1.09827
C	0.933373	-0.594435	0.248723
O	0.189655	-0.688331	-0.88489
H	-1.5501	0.280669	-1.57759
H	-1.4264	1.63788	0.822178
H	0.802784	0.625461	2.08748
H	1.81675	-1.24844	0.333463
C	4.5744	-0.139348	1.16185
C	5.53019	-0.722352	0.357042
N	5.38014	-0.340848	-0.934643
C	4.33523	0.475724	-0.931173
N	3.81423	0.629593	0.309175
H	4.38761	-0.214725	2.24489
H	6.32536	-1.41142	0.685258
H	3.90955	0.988167	-1.80891
H	2.98852	1.22182	0.571352
