18
  This energy is -0.6899 and Call times are: 130867
C	-0.000571307	1.03086	-0.472999
C	-1.00794	0.133836	-0.675299
C	-0.652518	-1.02888	0.0742944
C	0.540671	-0.739729	0.668488
O	0.953635	0.51404	0.345169
H	0.152498	2.05556	-0.849589
H	-1.91075	0.276601	-1.29065
H	-1.22496	-1.96685	0.155682
H	1.18828	-1.33283	1.33488
C	5.98595	-0.884219	-0.364319
C	5.65288	-0.577835	0.938117
N	4.8429	0.507263	0.99301
C	4.67413	0.872655	-0.270567
N	5.34314	0.0650246	-1.12716
H	6.61396	-1.6839	-0.788173
H	5.9825	-1.1203	1.83919
H	4.07078	1.72407	-0.624533
H	5.36752	0.146443	-2.17312
