18
  This energy is -1.1053 and Call times are: 54203
C	-0.508752	-0.119613	-1.00661
C	-0.716129	-0.988156	0.0244096
C	0.0865291	-0.510869	1.10518
C	0.713542	0.607202	0.63919
O	0.361591	0.86092	-0.648743
H	-0.915365	-0.0902462	-2.03084
H	-1.36885	-1.87588	0.0239189
H	0.179877	-0.95496	2.10925
H	1.42375	1.30067	1.11874
C	5.42734	-0.14191	-0.985594
C	4.22785	-0.746261	-0.673958
N	3.78546	-0.3542	0.545507
C	4.70701	0.490163	0.988708
N	5.71741	0.651596	0.101789
H	6.0735	-0.217819	-1.87456
H	3.6737	-1.45816	-1.30718
H	4.69142	1.0184	1.95564
H	6.56102	1.26446	0.21996
