18
  This energy is -0.7919 and Call times are: 69145
C	0.36672	0.227045	-1.04898
C	-0.931413	-0.0961908	-0.78301
C	-1.00041	-0.30804	0.627833
C	0.261647	-0.0955604	1.09946
O	1.10949	0.232158	0.0891216
H	0.880488	0.471888	-1.9931
H	-1.75752	-0.177305	-1.50763
H	-1.89065	-0.586067	1.21458
H	0.679408	-0.145483	2.1184
C	5.75758	-0.776143	-0.217391
C	4.9718	-0.706339	0.913461
N	4.08232	0.312529	0.828284
C	4.31541	0.872672	-0.350926
N	5.31632	0.25244	-1.01957
H	6.57236	-1.4621	-0.498682
H	5.03074	-1.37289	1.7893
H	3.78243	1.73934	-0.774063
H	5.68581	0.506668	-1.96831
