18
  This energy is -1.4239 and Call times are: 159449
C	0.202092	-1.09982	-0.189635
C	0.0333108	-0.202816	-1.20318
C	-0.19712	1.0588	-0.574426
C	-0.14881	0.821389	0.767839
O	0.0940792	-0.491611	1.02091
H	0.401898	-2.18391	-0.198479
H	0.0676335	-0.408896	-2.28505
H	-0.376982	2.02539	-1.07187
H	-0.269626	1.49272	1.63385
C	3.61934	0.140853	0.635258
C	4.22102	-1.05236	0.295609
N	5.33715	-0.843622	-0.444112
C	5.42754	0.47408	-0.562914
N	4.41519	1.1124	0.0705531
H	2.71142	0.360057	1.21937
H	3.86977	-2.06014	0.571052
H	6.21491	1.02417	-1.10298
H	4.26514	2.14977	0.121763
