18
  This energy is -1.0226 and Call times are: 134939
C	-0.110702	-0.714924	0.873516
C	1.0981	-0.214401	0.487958
C	0.831359	0.634764	-0.629131
C	-0.516893	0.578192	-0.827596
O	-1.10812	-0.241422	0.0810785
H	-0.390325	-1.40704	1.68471
H	2.07918	-0.422312	0.944408
H	1.56451	1.21615	-1.21101
H	-1.16766	1.06761	-1.57072
C	5.25674	0.646701	0.972803
C	5.95423	1.00251	-0.162117
N	5.91402	0.0155305	-1.08989
C	5.19432	-0.948907	-0.532655
N	4.77494	-0.616481	0.711211
H	5.07519	1.18504	1.91661
H	6.48576	1.9537	-0.328135
H	4.94408	-1.91909	-0.99131
H	4.19353	-1.20825	1.35389
