18
  This energy is -1.3341 and Call times are: 42360
C	-0.0299414	-0.118587	1.12758
C	-1.155	-0.166545	0.357956
C	-0.716024	0.0204157	-0.988322
C	0.63853	0.166118	-0.922542
O	1.07456	0.0839246	0.362031
H	0.115769	-0.213423	2.21617
H	-2.19017	-0.318348	0.70361
H	-1.34317	0.0423914	-1.89403
H	1.39503	0.331419	-1.70717
C	3.99993	0.524453	0.866
C	4.30589	-0.81622	0.765352
N	5.0096	-1.07338	-0.363884
C	5.13971	0.103286	-0.96151
N	4.54795	1.09846	-0.259335
H	3.44936	1.09175	1.6332
H	4.03148	-1.60256	1.48731
H	5.65878	0.292723	-1.91488
H	4.51323	2.11384	-0.522105
