18
  This energy is -0.8803 and Call times are: 76603
C	0.632627	0.665703	-0.665601
C	0.971236	-0.626895	-0.391907
C	-0.0552801	-1.12665	0.466365
C	-0.930561	-0.0953259	0.641382
O	-0.526052	1.00709	-0.0427627
H	1.12594	1.43616	-1.28065
H	1.8552	-1.17361	-0.757708
H	-0.125457	-2.13788	0.898319
H	-1.86555	-0.0202233	1.22053
C	6.38785	-0.771689	0.0362797
C	5.06829	-1.04173	-0.258637
N	4.31615	0.0844727	-0.209013
C	5.16588	1.04952	0.115455
N	6.42749	0.584019	0.274337
H	7.27199	-1.42648	0.0917439
H	4.64546	-2.02901	-0.506334
H	4.9173	2.11461	0.2497
H	7.27447	1.14833	0.530131
