18
  This energy is -0.9713 and Call times are: 196499
C	1.09138	0.182334	-0.249089
C	0.343844	1.07822	0.45728
C	-0.958288	0.501352	0.565878
C	-0.891519	-0.696122	-0.0837143
O	0.352887	-0.907179	-0.587619
H	2.14542	0.202825	-0.571325
H	0.676054	2.048	0.861322
H	-1.8364	0.934944	1.07086
H	-1.64927	-1.47828	-0.254847
C	4.72253	0.865318	0.639011
C	5.20425	-0.339234	1.10607
N	5.68474	-1.09947	0.0923174
C	5.50179	-0.36932	-0.999488
N	4.92482	0.823969	-0.722442
H	4.26533	1.72049	1.16169
H	5.21372	-0.673379	2.15636
H	5.77204	-0.660437	-2.02732
H	4.67851	1.57463	-1.41316
