18
  This energy is -1.7426 and Call times are: 133378
C	0.452221	0.165847	1.02684
C	-0.228767	-0.970864	0.703545
C	-0.637635	-0.808591	-0.655356
C	-0.170406	0.412958	-1.04251
O	0.497592	1.02198	-0.0276763
H	0.945561	0.48198	1.96061
H	-0.423627	-1.83676	1.3565
H	-1.21253	-1.52366	-1.26549
H	-0.245965	0.95488	-1.99952
C	3.86623	0.822944	-0.112654
C	5.23074	1.02097	-0.120062
N	5.89527	-0.150043	0.0336709
C	4.94663	-1.07103	0.136061
N	3.70606	-0.534557	0.0538487
H	3.02589	1.52844	-0.21081
H	5.74763	1.98782	-0.233579
H	5.10497	-2.15297	0.272364
H	2.79565	-1.05379	0.106846
