18
  This energy is -0.5708 and Call times are: 199854
C	0.85567	0.744207	0.0196514
C	-0.232845	0.903852	-0.78659
C	-1.07689	-0.219697	-0.53097
C	-0.429651	-0.966743	0.408912
O	0.752206	-0.392924	0.7567
H	1.75865	1.36091	0.15948
H	-0.422396	1.72994	-1.49068
H	-2.05098	-0.437943	-0.997467
H	-0.701076	-1.91335	0.904412
C	7.06702	-0.354842	-0.34733
C	6.75808	0.327631	0.810221
N	5.42838	0.57652	0.890614
C	4.91437	0.0504521	-0.212868
N	5.8619	-0.52284	-0.992038
H	8.02715	-0.720648	-0.744668
H	7.4708	0.644901	1.58882
H	3.85051	0.0568708	-0.499906
H	5.70787	-1.00369	-1.91199
