18
  This energy is -0.8729 and Call times are: 117401
C	-0.320333	0.587579	0.915718
C	-1.05704	-0.446105	0.416585
C	-0.338287	-0.924952	-0.721051
C	0.774192	-0.141614	-0.816684
O	0.801364	0.787425	0.174861
H	-0.483957	1.25128	1.78058
H	-2.01092	-0.832622	0.810045
H	-0.624091	-1.75655	-1.38502
H	1.61064	-0.144185	-1.53473
C	6.2714	0.119173	-0.782014
C	6.20469	-0.792742	0.250025
N	5.05688	-0.648688	0.955927
C	4.41397	0.348801	0.364061
N	5.10514	0.845388	-0.689164
H	7.04062	0.296803	-1.55032
H	6.9642	-1.55204	0.497932
H	3.43395	0.755719	0.661038
H	4.809	1.63347	-1.31566
