18
  This energy is -1.1742 and Call times are: 99321
C	0.396079	0.747807	-0.755187
C	-0.0984245	-0.469106	-1.12256
C	-0.492416	-1.11326	0.0898584
C	-0.203895	-0.233111	1.09109
O	0.339331	0.908782	0.593101
H	0.812631	1.57745	-1.34968
H	-0.177785	-0.872667	-2.14478
H	-0.937988	-2.11555	0.194571
H	-0.335543	-0.299738	2.18356
C	5.45308	0.712035	0.38775
C	4.09358	0.904695	0.513368
N	3.40144	-0.11561	-0.0491578
C	4.32804	-0.938111	-0.521954
N	5.58105	-0.483432	-0.283571
H	6.30996	1.32074	0.717568
H	3.59973	1.76162	0.999815
H	4.14409	-1.88701	-1.05109
H	6.47894	-0.952259	-0.557877
