18
  This energy is -0.6478 and Call times are: 119482
C	0.658001	0.877166	-0.289855
C	0.421481	0.539791	1.01038
C	-0.438976	-0.599494	0.968399
C	-0.65231	-0.857746	-0.353784
O	0.010048	0.0342884	-1.13645
H	1.26084	1.68416	-0.737733
H	0.813603	1.04275	1.90892
H	-0.846642	-1.15549	1.82791
H	-1.24671	-1.63595	-0.860076
C	5.7853	1.16943	0.101182
C	4.63367	0.437916	-0.0982014
N	4.90313	-0.88839	-0.167578
C	6.21694	-0.979329	-0.0118261
N	6.79458	0.234136	0.153774
H	5.95248	2.25324	0.205873
H	3.61316	0.843371	-0.193239
H	6.80714	-1.90986	-0.0107926
H	7.81656	0.425938	0.295273
