18
  This energy is -0.8243 and Call times are: 186010
C	-0.909063	-0.148599	-0.661758
C	-0.825785	0.863874	0.248372
C	0.448692	0.720596	0.8771
C	1.03172	-0.366783	0.295674
O	0.216572	-0.909992	-0.646381
H	-1.7048	-0.430937	-1.37052
H	-1.58561	1.63433	0.456139
H	0.873484	1.35787	1.66927
H	2.00929	-0.848479	0.461728
C	6.45062	-0.263983	0.641658
C	6.08122	-0.828243	-0.560963
N	4.92797	-0.28564	-1.02153
C	4.58325	0.611823	-0.108101
N	5.46935	0.662739	0.914554
H	7.31356	-0.450116	1.30062
H	6.62617	-1.61715	-1.10457
H	3.69186	1.25892	-0.138576
H	5.41853	1.28887	1.75517
