18
  This energy is -1.5751 and Call times are: 37646
C	-0.0366142	-1.12896	0.102544
C	0.529258	-0.511266	-0.973848
C	0.382578	0.890467	-0.742018
C	-0.259979	1.00561	0.455577
O	-0.523685	-0.217782	0.985456
H	-0.154413	-2.19557	0.354956
H	1.00249	-0.994266	-1.84383
H	0.71947	1.71037	-1.39651
H	-0.581869	1.88938	1.03056
C	3.67656	-0.928294	0.00187861
C	4.6346	-0.627718	-0.943087
N	5.28653	0.518497	-0.630519
C	4.73502	0.927446	0.50404
N	3.75921	0.0889463	0.926313
H	2.96554	-1.76614	0.0793408
H	4.8671	-1.21738	-1.84481
H	5.00777	1.83394	1.06806
H	3.17661	0.19377	1.79283
