18
  This energy is -1.3944 and Call times are: 118717
C	-0.0426629	-1.13295	0.0317049
C	0.451143	-0.391416	1.0645
C	0.338507	0.97245	0.655472
C	-0.214187	0.943957	-0.59116
O	-0.453512	-0.333699	-0.987811
H	-0.154687	-2.22188	-0.0984219
H	0.854275	-0.767157	2.01864
H	0.636944	1.86441	1.22943
H	-0.482933	1.75271	-1.2904
C	5.20225	0.350558	-1.08206
C	6.03367	-0.193362	-0.126006
N	5.3506	-0.482698	1.00811
C	4.10018	-0.119655	0.756586
N	3.95933	0.38868	-0.49055
H	5.40049	0.701492	-2.10728
H	7.11417	-0.382208	-0.23423
H	3.2482	-0.204079	1.4503
H	3.0723	0.744123	-0.924258
