18
  This energy is -1.0486 and Call times are: 14624
C	-0.588964	-0.0192312	0.969099
C	0.667275	-0.540659	0.867364
C	1.06977	-0.32953	-0.48672
C	0.0239546	0.302278	-1.09291
O	-0.997618	0.499767	-0.218611
H	-1.28778	0.0436893	1.81936
H	1.25186	-1.02534	1.66576
H	2.02846	-0.617971	-0.946933
H	-0.114834	0.658964	-2.12672
C	4.61422	0.093987	0.635996
C	5.70718	-0.698617	0.91593
N	6.66637	-0.560529	-0.0313758
C	6.17035	0.314414	-0.895707
N	4.93532	0.738748	-0.537615
H	3.6624	0.239966	1.17104
H	5.82081	-1.36764	1.78446
H	6.66935	0.679324	-1.80789
H	4.33648	1.42765	-1.05536
