18
  This energy is -1.0864 and Call times are: 137715
C	0.699331	-0.88971	-0.0758515
C	-0.488147	-0.834937	-0.744635
C	-1.07313	0.421817	-0.400429
C	-0.191492	1.02409	0.448308
O	0.896674	0.237263	0.657633
H	1.48273	-1.66443	-0.0392401
H	-0.909839	-1.60253	-1.41327
H	-2.03857	0.82237	-0.749129
H	-0.222041	1.99801	0.963848
C	4.27981	-0.297945	-0.670498
C	4.4864	0.909828	-0.03824
N	5.65307	0.907164	0.65123
C	6.1683	-0.297681	0.447476
N	5.37781	-1.06173	-0.343056
H	3.4566	-0.656021	-1.30897
H	3.81453	1.7831	-0.0672093
H	7.12162	-0.672618	0.853466
H	5.56557	-2.04803	-0.648369
