18
  This energy is -0.5303 and Call times are: 118781
C	0.782613	0.292959	-0.766872
C	-0.550501	0.499524	-0.968149
C	-1.20367	0.00664473	0.202561
C	-0.212034	-0.457602	1.0159
O	1.00745	-0.290703	0.439693
H	1.65995	0.513819	-1.39675
H	-1.02619	0.953442	-1.85233
H	-2.28647	0.00243391	0.406548
H	-0.243511	-0.922536	2.01494
C	5.13186	0.22596	-0.439446
C	6.32565	0.79201	-0.833914
N	7.3618	0.299865	-0.112329
C	6.81291	-0.568198	0.726601
N	5.47046	-0.648774	0.568711
H	4.09976	0.37862	-0.793011
H	6.45788	1.5467	-1.62626
H	7.34788	-1.17186	1.47735
H	4.81285	-1.26096	1.11097
