18
  This energy is -0.7422 and Call times are: 181939
C	1.07088	-0.371985	0.0351673
C	0.020423	-1.12836	0.465061
C	-1.14568	-0.3286	0.263297
C	-0.70487	0.845891	-0.272081
O	0.646258	0.836759	-0.418311
H	2.15344	-0.577103	-7.30429e-05
H	0.0624963	-2.14726	0.882388
H	-2.18749	-0.604136	0.493086
H	-1.24483	1.75356	-0.588056
C	5.80611	-0.0625331	1.10284
C	5.17254	-1.06284	0.396364
N	4.83851	-0.645335	-0.848875
C	5.26324	0.609217	-0.914659
N	5.85366	1.00725	0.237103
H	6.21293	-0.0370927	2.12626
H	4.95046	-2.07834	0.762844
H	5.16751	1.28179	-1.78225
H	6.26861	1.95097	0.433231
