18
  This energy is -1.0817 and Call times are: 92375
C	1.05707	-0.385274	-0.143443
C	0.780304	0.937823	0.0387423
C	-0.638332	1.02465	0.180339
C	-1.10325	-0.25306	0.0721822
O	-0.0815377	-1.12708	-0.125823
H	2.00978	-0.918829	-0.294773
H	1.50268	1.76925	0.0702567
H	-1.23457	1.93678	0.343467
H	-2.12442	-0.66581	0.117871
C	4.68141	-0.921208	0.601041
C	5.12866	0.273752	1.12371
N	5.54158	1.11223	0.142399
C	5.35121	0.439992	-0.984759
N	4.83429	-0.791449	-0.761301
H	4.27859	-1.8246	1.08597
H	5.1608	0.545922	2.19129
H	5.5732	0.802278	-2.00147
H	4.59547	-1.51039	-1.48749
