18
  This energy is -0.9669 and Call times are: 152434
C	-0.440845	0.263951	1.01113
C	0.241137	-0.896792	0.792152
C	0.633338	-0.866761	-0.580944
C	0.156403	0.309681	-1.07983
O	-0.502228	1.01284	-0.121301
H	-0.924536	0.668252	1.91547
H	0.447328	-1.69417	1.52412
H	1.20408	-1.63622	-1.12526
H	0.218421	0.755768	-2.08602
C	6.31135	0.278582	-0.269046
C	5.88986	-0.758907	0.535383
N	4.53817	-0.787023	0.628407
C	4.12269	0.229159	-0.115484
N	5.15399	0.902673	-0.677966
H	7.31936	0.606023	-0.569429
H	6.53686	-1.48766	1.05032
H	3.07438	0.524727	-0.282567
H	5.08507	1.74063	-1.30593
