18
  This energy is -1.682 and Call times are: 121137
C	-0.0428579	-1.10865	0.235497
C	0.86069	-0.271801	0.82172
C	0.6041	1.02366	0.27761
C	-0.433596	0.864091	-0.593078
O	-0.841258	-0.431809	-0.631367
H	-0.21751	-2.19118	0.348986
H	1.63064	-0.539866	1.56295
H	1.13555	1.95972	0.513089
H	-0.965268	1.58407	-1.23666
C	4.71856	-1.12691	-0.317964
C	5.40818	-0.471808	0.68024
N	5.01904	0.822883	0.774334
C	4.09153	0.970407	-0.161936
N	3.87441	-0.17675	-0.847848
H	4.76716	-2.16731	-0.676774
H	6.17954	-0.910149	1.33423
H	3.53954	1.89695	-0.387868
H	3.19286	-0.315858	-1.6336
