18
  This energy is -1.1336 and Call times are: 77298
C	-0.876742	0.719516	0.0046152
C	-0.22949	0.349487	1.14677
C	0.800107	-0.552199	0.738101
C	0.691137	-0.653579	-0.617709
O	-0.327716	0.116422	-1.08252
H	-1.73061	1.39569	-0.165517
H	-0.454509	0.678492	2.17401
H	1.53209	-1.06131	1.38548
H	1.26985	-1.23201	-1.35646
C	4.39026	0.415888	0.438807
C	4.58917	-0.809247	-0.161712
N	5.87864	-0.959158	-0.55067
C	6.47741	0.168687	-0.19281
N	5.62237	1.03	0.407718
H	3.48917	0.878745	0.87164
H	3.82535	-1.58769	-0.321296
H	7.54016	0.415972	-0.346618
H	5.8539	1.98386	0.778918
