18
  This energy is -0.7778 and Call times are: 167994
C	-0.107012	-0.136742	1.12083
C	-1.18186	0.0469286	0.301475
C	-0.650027	0.178393	-1.01761
C	0.702872	0.0634519	-0.887888
O	1.05209	-0.129407	0.41129
H	-0.0353409	-0.282527	2.21118
H	-2.24281	0.0859256	0.59639
H	-1.21663	0.339585	-1.94878
H	1.51454	0.100586	-1.63292
C	5.74376	-0.984824	-0.0280419
C	4.64156	-0.694334	-0.803875
N	4.14469	0.531148	-0.507528
C	4.93563	0.999134	0.448515
N	5.91516	0.122216	0.772752
H	6.3965	-1.87142	0.00962327
H	4.19595	-1.34704	-1.57215
H	4.84253	1.97784	0.946213
H	6.66275	0.259481	1.49631
