18
  This energy is -1.3006 and Call times are: 67566
C	-0.762257	0.605477	0.582033
C	0.0538342	1.16631	-0.355962
C	0.859802	0.100508	-0.860539
C	0.465078	-1.01754	-0.186341
O	-0.524719	-0.727559	0.69866
H	-1.54325	1.04153	1.22637
H	0.0851255	2.22439	-0.661864
H	1.64023	0.167935	-1.63544
H	0.805511	-2.06445	-0.244076
C	5.53465	-0.684772	-0.46855
C	4.39812	-1.10014	0.192449
N	3.65639	-0.0421839	0.601176
C	4.3302	1.02546	0.195284
N	5.46991	0.690657	-0.454756
H	6.35748	-1.25171	-0.932308
H	4.10005	-2.14425	0.381758
H	4.03422	2.07589	0.347668
H	6.17072	1.35271	-0.869266
