18
  This energy is -1.4542 and Call times are: 49796
C	0.0172734	-1.08731	-0.322286
C	-0.31984	-0.705807	0.943094
C	-0.225946	0.719331	0.959896
C	0.160255	1.08291	-0.296701
O	0.313456	-0.00776703	-1.09292
H	0.0835409	-2.08204	-0.792787
H	-0.605929	-1.36213	1.78065
H	-0.424761	1.38767	1.81306
H	0.357167	2.07112	-0.743825
C	4.54024	-1.10391	0.329796
C	3.44923	-0.347729	0.702683
N	3.49045	0.88237	0.135524
C	4.60279	0.889284	-0.586468
N	5.27103	-0.285424	-0.502199
H	4.83836	-2.13225	0.588974
H	2.63309	-0.667697	1.37079
H	4.9753	1.72834	-1.19593
H	6.17383	-0.526731	-0.979682
