18
  This energy is -1.3617 and Call times are: 163036
C	0.166625	0.016972	-1.12176
C	-1.0679	0.176526	-0.564201
C	-0.872309	0.0960198	0.848379
C	0.464467	-0.105623	1.02933
O	1.1143	-0.156528	-0.163208
H	0.498339	0.00726927	-2.17301
H	-2.02069	0.335013	-1.09445
H	-1.6433	0.179676	1.63111
H	1.06832	-0.227343	1.94354
C	4.02158	0.105703	-1.10938
C	4.22832	-1.06669	-0.413745
N	4.6675	-0.817694	0.843886
C	4.73296	0.504138	0.928134
N	4.35364	1.10651	-0.223761
H	3.67328	0.292424	-2.13766
H	4.06846	-2.08776	-0.79677
H	5.05203	1.0829	1.80987
H	4.31909	2.13917	-0.407255
