18
  This energy is -1.6052 and Call times are: 28639
C	-0.433197	0.742773	-0.739614
C	-0.493493	0.935461	0.609315
C	0.149029	-0.197663	1.19524
C	0.545241	-0.982757	0.152643
O	0.197833	-0.423732	-1.03639
H	-0.79715	1.35321	-1.58233
H	-0.945124	1.78983	1.13864
H	0.294618	-0.396529	2.26919
H	1.07529	-1.94896	0.125193
C	5.08934	0.474772	0.708883
C	5.21443	0.667122	-0.650712
N	6.26121	-0.0345016	-1.1492
C	6.78353	-0.659742	-0.102831
N	6.11247	-0.385023	1.04076
H	4.36869	0.87552	1.43936
H	4.56813	1.29959	-1.28089
H	7.65747	-1.33073	-0.117937
H	6.33011	-0.756264	1.99788
