18
  This energy is -0.9976 and Call times are: 194169
C	-0.0522499	1.0381	0.453885
C	-0.200076	-0.0937857	1.20044
C	-0.0731023	-1.18421	0.286679
C	0.141107	-0.622408	-0.937602
O	0.156892	0.733979	-0.854083
H	-0.0747221	2.10484	0.731045
H	-0.38044	-0.154735	2.28573
H	-0.135446	-2.25871	0.52263
H	0.295305	-1.07289	-1.93185
C	7.64052	0.34119	-0.431275
C	7.42425	-0.500123	0.639503
N	6.09924	-0.677718	0.861543
C	5.4958	0.0506511	-0.0679521
N	6.38194	0.684321	-0.872196
H	8.56998	0.707773	-0.895234
H	8.20055	-0.982162	1.25582
H	4.40742	0.155389	-0.204737
H	6.15371	1.31655	-1.67808
