18
  This energy is -0.8453 and Call times are: 3935
C	0.296666	-0.0794032	1.09183
C	-0.825974	0.580466	0.686086
C	-0.856277	0.462067	-0.737003
C	0.250521	-0.259702	-1.07526
O	0.966149	-0.598748	0.0292424
H	0.723339	-0.248388	2.09415
H	-1.55919	1.09861	1.32484
H	-1.61766	0.870164	-1.421
H	0.635032	-0.593428	-2.05303
C	6.37049	0.0843916	0.0889919
C	5.43934	1.00597	0.518869
N	4.17818	0.585363	0.256039
C	4.32638	-0.592667	-0.334644
N	5.62956	-0.939038	-0.458542
H	7.47124	0.0844292	0.132511
H	5.65492	1.96683	1.01396
H	3.51423	-1.24365	-0.696391
H	6.00415	-1.81946	-0.889576
