18
  This energy is -0.9368 and Call times are: 98790
C	-0.221862	0.805657	0.766873
C	0.540492	-0.287802	1.0559
C	0.590333	-1.05838	-0.145701
C	-0.145963	-0.367784	-1.06293
O	-0.649455	0.773139	-0.522746
H	-0.529179	1.66631	1.38338
H	1.01967	-0.52769	2.01868
H	1.11584	-2.01451	-0.299804
H	-0.383932	-0.579309	-2.11834
C	6.4475	0.194562	0.174592
C	5.67026	0.692326	-0.849749
N	4.38865	0.265109	-0.74262
C	4.37088	-0.4948	0.344048
N	5.58806	-0.568797	0.932772
H	7.51574	0.325176	0.409822
H	6.01128	1.35207	-1.66418
H	3.49342	-1.0208	0.753462
H	5.83082	-1.10543	1.80131
