18
  This energy is -1.1898 and Call times are: 117051
C	-0.285939	0.968871	0.515683
C	-0.951857	0.499514	-0.578224
C	-0.307349	-0.724836	-0.932758
C	0.695522	-0.89558	-0.0242049
O	0.723187	0.129407	0.867786
H	-0.430728	1.87498	1.12663
H	-1.81076	0.968432	-1.08467
H	-0.567189	-1.39394	-1.76875
H	1.4475	-1.69304	0.0934444
C	4.88804	1.069	0.484329
C	4.13825	0.0092393	0.948938
N	4.27005	-1.07276	0.1437
C	5.09845	-0.685718	-0.816804
N	5.4992	0.597698	-0.656083
H	5.02537	2.09111	0.871609
H	3.50455	0.00596785	1.85075
H	5.44467	-1.30201	-1.66211
H	6.15125	1.13195	-1.28112
