18
  This energy is -1.1258 and Call times are: 35834
C	-1.11664	-0.110294	0.165357
C	-0.427531	1.00191	0.550702
C	0.931401	0.768591	0.1779
C	0.95275	-0.4656	-0.40235
O	-0.289382	-1.01684	-0.418451
H	-2.18354	-0.37484	0.249049
H	-0.835258	1.89686	1.04763
H	1.78679	1.44666	0.328308
H	1.77668	-1.05479	-0.837375
C	5.93077	0.226206	0.894373
C	5.46826	-1.01016	0.496083
N	4.64126	-0.901635	-0.572004
C	4.59092	0.397115	-0.835324
N	5.3516	1.11944	0.0209447
H	6.60846	0.523691	1.71033
H	5.71647	-1.97855	0.960267
H	4.01266	0.873156	-1.64356
H	5.4764	2.1614	0.0197125
