18
  This energy is -0.8209 and Call times are: 77138
C	0.162838	0.798733	-0.788613
C	1.00396	0.638273	0.273056
C	0.474332	-0.450798	1.03038
C	-0.643683	-0.859713	0.364644
O	-0.849012	-0.107671	-0.748588
H	0.174883	1.5112	-1.62974
H	1.9068	1.2277	0.500114
H	0.884887	-0.873657	1.96136
H	-1.36856	-1.66258	0.577254
C	6.42893	-0.71413	0.110497
C	5.14829	-1.07258	-0.253674
N	4.32802	0.00581855	-0.280611
C	5.09686	1.02939	0.0655323
N	6.37232	0.646952	0.311593
H	7.34596	-1.31137	0.236576
H	4.80149	-2.09	-0.497466
H	4.77688	2.08007	0.154401
H	7.16673	1.2688	0.600512
