18
  This energy is -1.0703 and Call times are: 7582
C	-1.1142	-0.112702	0.179592
C	-0.482023	1.09407	0.246059
C	0.893448	0.830915	-0.0349107
C	0.980377	-0.513441	-0.248272
O	-0.236289	-1.10556	-0.121267
H	-2.17031	-0.393738	0.324155
H	-0.938503	2.07151	0.470438
H	1.71546	1.56374	-0.0716916
H	1.8381	-1.16064	-0.494651
C	5.5723	0.501118	0.954416
C	5.33071	1.10291	-0.262394
N	4.7771	0.229385	-1.13817
C	4.67563	-0.909981	-0.467225
N	5.14173	-0.797611	0.799154
H	6.00569	0.892109	1.88867
H	5.54594	2.15174	-0.52408
H	4.26756	-1.85714	-0.85529
H	5.16977	-1.55544	1.52453
