18
  This energy is -1.0897 and Call times are: 48111
C	0.250435	-0.739623	-0.822582
C	0.682996	0.553701	-0.846652
C	0.171552	1.15922	0.341579
C	-0.528395	0.182461	0.986867
O	-0.490784	-0.983762	0.290074
H	0.400215	-1.57387	-1.52746
H	1.3003	1.03321	-1.62325
H	0.313473	2.20155	0.669437
H	-1.09024	0.190733	1.93529
C	5.78623	0.816569	0.612083
C	6.3276	-0.246307	-0.0795454
N	5.35995	-0.988325	-0.670785
C	4.22259	-0.388059	-0.347176
N	4.42647	0.70513	0.425457
H	6.25667	1.61764	1.20412
H	7.39908	-0.491051	-0.162531
H	3.21201	-0.707006	-0.649216
H	3.68919	1.34576	0.809216
