18
  This energy is -1.1181 and Call times are: 162394
C	-0.593852	0.365816	-0.894382
C	0.0818238	1.21591	-0.0690425
C	0.69569	0.392007	0.923165
C	0.340949	-0.888823	0.616561
O	-0.446541	-0.923456	-0.49054
H	-1.20838	0.551335	-1.79059
H	0.141923	2.31309	-0.150743
H	1.32637	0.723381	1.76371
H	0.580557	-1.84968	1.10091
C	5.74591	-0.233434	-0.784245
C	4.48509	-0.789514	-0.736881
N	3.76968	-0.290658	0.300347
C	4.58358	0.57162	0.894194
N	5.7872	0.642082	0.277807
H	6.58858	-0.393445	-1.4755
H	4.0788	-1.54174	-1.43254
H	4.3489	1.17806	1.78379
H	6.59747	1.24818	0.555953
