18
  This energy is -1.13 and Call times are: 138576
C	-1.03006	0.467303	0.0836558
C	0.1121	1.16515	0.346032
C	1.18738	0.249291	0.133693
C	0.60738	-0.927381	-0.239696
O	-0.746316	-0.812343	-0.275516
H	-2.09144	0.763447	0.115718
H	0.189632	2.21913	0.657823
H	2.26437	0.451981	0.248117
H	1.04215	-1.90557	-0.503083
C	5.35858	0.739022	-0.87868
C	5.01185	-0.590771	-0.990807
N	4.78026	-1.13966	0.226402
C	4.98256	-0.154136	1.09037
N	5.33325	0.999062	0.473328
H	5.61306	1.49353	-1.63992
H	4.92463	-1.16398	-1.92818
H	4.88765	-0.222377	2.18607
H	5.54544	1.91647	0.936583
