18
  This energy is -1.7661 and Call times are: 76795
C	-0.138548	1.07773	-0.325137
C	0.914233	0.67627	0.443537
C	0.742352	-0.728103	0.639272
C	-0.40029	-1.06087	-0.0270692
O	-0.951409	0.0297683	-0.621879
H	-0.418374	2.06725	-0.722376
H	1.73001	1.30592	0.833583
H	1.39837	-1.4038	1.21125
H	-0.919272	-2.02539	-0.151962
C	4.8471	-0.394088	1.01484
C	4.97563	0.875021	0.4914
N	4.33244	0.980998	-0.696706
C	3.8069	-0.217807	-0.909529
N	4.08903	-1.08215	0.093914
H	5.2287	-0.841364	1.94643
H	5.52093	1.7161	0.949742
H	3.20655	-0.516958	-1.78378
H	3.78772	-2.08532	0.158139
