18
  This energy is -0.971 and Call times are: 32789
C	1.06115	0.202614	-0.345416
C	-0.0226581	0.782882	-0.9362
C	-1.16306	0.28803	-0.232838
C	-0.675468	-0.55095	0.72567
O	0.680982	-0.615046	0.671402
H	2.14041	0.288685	-0.552889
H	-0.0193879	1.48859	-1.7824
H	-2.21979	0.533776	-0.425273
H	-1.18297	-1.15342	1.49685
C	5.0648	0.474319	1.07513
C	5.10581	1.14484	-0.12897
N	5.00512	0.284381	-1.17108
C	4.90205	-0.915378	-0.615581
N	4.93298	-0.853959	0.736773
H	5.11832	0.836304	2.11419
H	5.20624	2.23406	-0.264454
H	4.80162	-1.87235	-1.15256
H	4.86877	-1.66387	1.40098
