18
  This energy is -1.0882 and Call times are: 97125
C	1.11402	0.0184814	0.212202
C	0.542675	-0.906081	-0.61189
C	-0.853944	-0.607132	-0.626145
C	-1.01277	0.473723	0.190495
O	0.178768	0.869068	0.711028
H	2.16069	0.175339	0.520611
H	1.05347	-1.71723	-1.15523
H	-1.64129	-1.14041	-1.18274
H	-1.90935	1.04654	0.479069
C	5.41345	0.950793	-0.668045
C	6.50058	0.711506	0.145613
N	6.38857	-0.485355	0.771303
C	5.23634	-0.986662	0.347419
N	4.61057	-0.15838	-0.522038
H	5.1627	1.80345	-1.31893
H	7.36374	1.38102	0.2924
H	4.8033	-1.95621	0.641844
H	3.68932	-0.328682	-0.994845
