18
  This energy is -0.5187 and Call times are: 195666
C	-0.619704	-0.949244	-0.0361148
C	-0.825467	0.0904892	-0.894597
C	0.135752	1.08591	-0.540606
C	0.844048	0.566595	0.502945
O	0.396118	-0.67563	0.824265
H	-1.12213	-1.92539	0.063642
H	-1.57858	0.150459	-1.69667
H	0.276083	2.07112	-1.01365
H	1.67906	0.975479	1.09524
C	7.11863	0.365652	0.00826537
C	6.67213	-0.934271	0.11774
N	5.31901	-0.991792	0.0701386
C	4.92755	0.267658	-0.0683401
N	5.97552	1.12414	-0.110821
H	8.13502	0.790472	0.00672782
H	7.30209	-1.83168	0.230219
H	3.88571	0.618558	-0.143612
H	5.92656	2.16725	-0.214687
