18
  This energy is -1.1576 and Call times are: 78050
C	0.788991	0.304877	0.755608
C	0.379645	1.13333	-0.247624
C	-0.607843	0.404448	-0.978181
C	-0.714765	-0.805072	-0.35689
O	0.131058	-0.883177	0.704004
H	1.53101	0.441203	1.5594
H	0.737206	2.1552	-0.452635
H	-1.16814	0.748825	-1.86224
H	-1.34674	-1.68292	-0.569596
C	4.74378	-0.979707	0.599683
C	3.96683	-0.372298	-0.36393
N	4.56993	0.74064	-0.847828
C	5.71666	0.823353	-0.186926
N	5.86819	-0.190824	0.697424
H	4.58152	-1.88724	1.20267
H	2.98191	-0.717163	-0.718679
H	6.48211	1.60617	-0.31148
H	6.68635	-0.346525	1.33589
