18
  This energy is -0.9339 and Call times are: 52131
C	0.882052	-0.626931	0.339619
C	0.00911241	-0.0571733	1.21924
C	-0.948656	0.641421	0.422516
C	-0.576446	0.436893	-0.873633
O	0.539598	-0.335545	-0.94289
H	1.7749	-1.25381	0.498071
H	0.0368621	-0.122304	2.31882
H	-1.81115	1.22563	0.781553
H	-1.01624	0.782043	-1.82374
C	5.20048	1.13788	-0.00488093
C	4.80845	0.390217	1.08528
N	4.5357	-0.88834	0.728329
C	4.75769	-0.933682	-0.578305
N	5.16037	0.263024	-1.06752
H	5.49534	2.19532	-0.0966244
H	4.71752	0.750423	2.12298
H	4.64087	-1.81761	-1.22581
H	5.39695	0.482585	-2.06606
