18
  This energy is -1.1332 and Call times are: 25291
C	0.841493	-0.728272	-0.218883
C	0.416428	0.192309	-1.13115
C	-0.640826	0.912754	-0.496096
C	-0.768503	0.368828	0.748178
O	0.128876	-0.634659	0.934558
H	1.63113	-1.49592	-0.26836
H	0.808099	0.348382	-2.14915
H	-1.23187	1.73848	-0.923824
H	-1.44993	0.60361	1.58231
C	4.55792	-0.614555	0.675817
C	4.27057	0.526186	-0.0434082
N	5.36279	0.970992	-0.711023
C	6.32407	0.109472	-0.407123
N	5.88875	-0.865052	0.426179
H	3.93047	-1.24479	1.32594
H	3.29472	1.03624	-0.0925643
H	7.36487	0.145301	-0.76723
H	6.4568	-1.65999	0.809129
