18
  This energy is -1.9767 and Call times are: 45774
C	0.293155	-0.852511	0.688249
C	0.304463	0.449944	1.09304
C	-0.119964	1.21415	-0.0365454
C	-0.353167	0.311229	-1.0319
O	-0.105962	-0.955722	-0.606767
H	0.543946	-1.78538	1.21938
H	0.583674	0.834017	2.08734
H	-0.235254	2.30855	-0.0921929
H	-0.692924	0.441674	-2.07247
C	3.48377	0.945615	0.473726
C	4.21903	0.901031	-0.691846
N	4.66701	-0.3538	-0.939278
C	4.21141	-1.0849	0.0689597
N	3.49211	-0.347258	0.947644
H	2.97227	1.77811	0.982504
H	4.43429	1.75181	-1.35869
H	4.3751	-2.16505	0.212854
H	3.029	-0.694133	1.82312
