18
  This energy is -1.3777 and Call times are: 120669
C	-0.883995	0.568328	0.426564
C	-0.358524	0.848912	-0.800435
C	0.724344	-0.0649596	-0.980304
C	0.765005	-0.823324	0.152658
O	-0.210097	-0.45024	1.02271
H	-1.72555	1.0151	0.981036
H	-0.699276	1.62188	-1.50789
H	1.39011	-0.141424	-1.85495
H	1.43016	-1.64812	0.456861
C	5.59202	-0.529814	-0.555606
C	4.92717	0.609597	-0.956694
N	3.95113	0.941063	-0.0769312
C	4.01024	0.0108211	0.866351
N	4.98343	-0.898786	0.623236
H	6.42729	-1.08566	-1.01046
H	5.13428	1.19844	-1.86511
H	3.36448	-0.0517457	1.75703
H	5.2278	-1.72726	1.21921
