18
  This energy is -0.9601 and Call times are: 97737
C	0.733523	0.109954	0.858053
C	1.13936	-0.02387	-0.437231
C	-0.0555264	-0.13446	-1.21191
C	-1.08606	-0.0584537	-0.321635
O	-0.622469	0.0909324	0.947134
H	1.3035	0.225065	1.79461
H	2.17615	-0.0428089	-0.809794
H	-0.129377	-0.256192	-2.30453
H	-2.17866	-0.0972178	-0.462971
C	6.16428	-0.265141	-0.85479
C	5.26689	0.781603	-0.842531
N	4.5399	0.788586	0.301125
C	4.9846	-0.249877	0.995718
N	5.9644	-0.917311	0.341417
H	6.90624	-0.581542	-1.60507
H	5.13096	1.53191	-1.63841
H	4.6277	-0.566725	1.98893
H	6.4746	-1.76927	0.680713
