18
  This energy is -1.4416 and Call times are: 178093
C	0.850958	-0.744285	-0.0911679
C	0.766272	0.368089	-0.875914
C	-0.424374	1.04399	-0.468922
C	-0.962167	0.284978	0.528604
O	-0.196359	-0.810982	0.772366
H	1.59686	-1.55496	-0.0500721
H	1.4715	0.681249	-1.66248
H	-0.825841	1.98539	-0.877187
H	-1.87293	0.414748	1.13599
C	5.6889	-0.0982663	-1.06603
C	6.34467	0.107144	0.129341
N	5.46956	0.170596	1.16213
C	4.27543	0.00517886	0.609583
N	4.35448	-0.160892	-0.731969
H	6.06484	-0.200885	-2.0964
H	7.43357	0.210697	0.265077
H	3.31023	-0.00287841	1.14114
H	3.55212	-0.309118	-1.3919
