18
  This energy is -0.4871 and Call times are: 109928
C	-0.647654	0.81302	0.453809
C	-0.747107	-0.49456	0.828933
C	0.216776	-1.20032	0.0460255
C	0.820155	-0.261724	-0.738408
O	0.30458	0.973405	-0.502506
H	-1.19037	1.71266	0.787526
H	-1.43066	-0.919472	1.58147
H	0.429149	-2.28124	0.0708517
H	1.61859	-0.344086	-1.49403
C	7.12074	-0.576848	0.102075
C	6.80692	0.651877	0.643271
N	5.54099	1.01672	0.325756
C	5.07125	0.0181237	-0.409622
N	5.98582	-0.966963	-0.573165
H	8.0407	-1.18109	0.148132
H	7.47126	1.28168	1.25716
H	4.06448	-0.0429046	-0.853384
H	5.85524	-1.85812	-1.11173
