18
  This energy is -0.8712 and Call times are: 12835
C	0.292884	0.683851	-0.856135
C	-0.33731	1.14324	0.262877
C	-0.535534	0.000744294	1.09686
C	-0.00897349	-1.05596	0.413854
O	0.501291	-0.657015	-0.780921
H	0.641232	1.20287	-1.76417
H	-0.632927	2.18241	0.479317
H	-1.0154	-0.0220377	2.08847
H	0.0635651	-2.12661	0.666221
C	4.70121	1.10226	0.105247
C	4.1136	0.0734891	-0.600073
N	4.84499	-1.06351	-0.506208
C	5.8824	-0.741319	0.254451
N	5.84139	0.553542	0.64846
H	4.39878	2.15103	0.254094
H	3.175	0.131271	-1.175
H	6.70129	-1.41511	0.55388
H	6.54424	1.04571	1.25264
