18
  This energy is -1.594 and Call times are: 130144
C	-0.350962	-0.802513	0.720555
C	0.414176	-1.08613	-0.372376
C	0.648195	0.16468	-1.02108
C	0.00540404	1.10223	-0.267303
O	-0.61014	0.529208	0.800291
H	-0.769908	-1.45054	1.50783
H	0.77735	-2.07678	-0.689904
H	1.22889	0.336656	-1.94158
H	-0.0879274	2.19459	-0.382645
C	3.69386	-0.413392	0.626978
C	4.5304	0.627852	0.969247
N	5.46816	0.835728	0.0132638
C	5.21434	-0.0730985	-0.918527
N	4.15396	-0.850615	-0.595041
H	2.83242	-0.859307	1.14912
H	4.47412	1.23283	1.88886
H	5.77376	-0.213119	-1.85751
H	3.75779	-1.63673	-1.16629
