18
  This energy is -0.7596 and Call times are: 141017
C	-0.898689	0.421036	0.549079
C	-0.758722	-0.91089	0.290704
C	0.480921	-1.04589	-0.405843
C	0.989049	0.215449	-0.511628
O	0.159547	1.12382	0.0661262
H	-1.69413	0.986741	1.06143
H	-1.45825	-1.7174	0.563274
H	0.933633	-1.97789	-0.780708
H	1.91845	0.593308	-0.968456
C	5.98206	-0.871502	0.400469
C	5.34578	0.0934552	1.15224
N	4.64213	0.941883	0.363849
C	4.84112	0.504928	-0.872313
N	5.64222	-0.586349	-0.903136
H	6.63099	-1.71287	0.6912
H	5.38183	0.192678	2.24937
H	4.42401	0.946848	-1.79153
H	5.94648	-1.11458	-1.75734
