18
  This energy is -0.4883 and Call times are: 16274
C	-0.690996	-0.200808	-0.876699
C	0.621301	-0.572604	-0.880907
C	1.1504	-0.153726	0.377948
C	0.114715	0.437062	1.0403
O	-1.01752	0.417146	0.28886
H	-1.48625	-0.317103	-1.63122
H	1.16244	-1.08993	-1.68938
H	2.18333	-0.281709	0.739567
H	0.0556495	0.903595	2.03735
C	7.43497	0.466569	-0.310221
C	6.94733	-0.773849	-0.663373
N	5.72025	-0.986715	-0.129077
C	5.44768	0.117448	0.552944
N	6.45047	1.02403	0.474744
H	8.38134	0.975079	-0.553824
H	7.45893	-1.51902	-1.29412
H	4.52841	0.314567	1.12767
H	6.47358	1.97114	0.926085
