18
  This energy is -0.6459 and Call times are: 114893
C	-0.380923	-0.983786	0.416489
C	-1.1776	0.117073	0.299065
C	-0.350837	1.14052	-0.256935
C	0.878079	0.574728	-0.430192
O	0.877811	-0.722261	-0.0241963
H	-0.587596	-1.99901	0.793141
H	-2.24081	0.200086	0.576179
H	-0.645574	2.17482	-0.496617
H	1.82177	0.983534	-0.827159
C	5.51252	-0.751339	0.589873
C	5.14647	0.0428691	-0.476141
N	6.19162	0.786886	-0.912722
C	7.20221	0.455506	-0.120565
N	6.84339	-0.468516	0.801943
H	4.93925	-1.47367	1.19248
H	4.14695	0.0923647	-0.938065
H	8.22626	0.859083	-0.172278
H	7.46129	-0.889314	1.53842
