18
  This energy is -1.8273 and Call times are: 143634
C	-0.286024	1.05962	0.285984
C	-0.254538	0.0414853	1.19305
C	0.144598	-1.11985	0.463594
C	0.321784	-0.708864	-0.824843
O	0.0631406	0.619325	-0.951445
H	-0.537197	2.12756	0.394052
H	-0.488874	0.102173	2.268
H	0.281256	-2.13861	0.860507
H	0.62597	-1.25681	-1.73175
C	3.59437	0.837492	-0.186192
C	4.56655	0.413906	-1.06744
N	5.32412	-0.56937	-0.52359
C	4.82382	-0.755076	0.690427
N	3.77933	0.0692814	0.941563
H	2.81017	1.60561	-0.278703
H	4.73491	0.800164	-2.08592
H	5.1843	-1.48157	1.43641
H	3.21746	0.114592	1.82672
