18
  This energy is -1.1477 and Call times are: 135588
C	-0.0914376	0.835535	-0.761526
C	-0.314006	1.03288	0.569598
C	-0.104519	-0.234922	1.19322
C	0.227572	-1.09509	0.188132
O	0.240368	-0.458284	-1.01242
H	-0.136271	1.52516	-1.6204
H	-0.597286	1.97657	1.06286
H	-0.193082	-0.469654	2.26614
H	0.474219	-2.16949	0.196969
C	5.60215	-0.210051	-0.355288
C	4.4422	-0.494779	-1.04419
N	3.34909	-0.117799	-0.33743
C	3.82908	0.398832	0.785657
N	5.18228	0.366195	0.822778
H	6.66135	-0.371336	-0.611457
H	4.37446	-0.965465	-2.03853
H	3.23402	0.81531	1.61432
H	5.79489	0.713658	1.60075
