18
  This energy is -0.9423 and Call times are: 1133
C	0.338929	-0.958356	0.503072
C	1.0943	-0.319749	-0.436057
C	0.342308	0.829943	-0.826988
C	-0.806217	0.792405	-0.0922407
O	-0.825075	-0.293014	0.725391
H	0.515726	-1.88121	1.07956
H	2.08197	-0.627424	-0.815452
H	0.631002	1.5909	-1.56975
H	-1.67575	1.46924	-0.0596904
C	5.05059	-0.722066	-0.89527
C	4.74357	-0.916407	0.43481
N	5.18083	0.117927	1.1934
C	5.75693	0.950774	0.337191
N	5.70434	0.489229	-0.934737
H	4.85659	-1.33943	-1.78677
H	4.21437	-1.78442	0.860675
H	6.23284	1.91242	0.588153
H	6.08841	0.963712	-1.78833
