18
  This energy is -0.5628 and Call times are: 46767
C	0.908378	0.25209	-0.630635
C	-0.00103402	-0.693104	-1.00474
C	-0.983721	-0.721938	0.031417
C	-0.588066	0.208181	0.947227
O	0.565564	0.812687	0.558996
H	1.82946	0.613318	-1.11682
H	0.0182124	-1.3083	-1.91866
H	-1.87787	-1.36394	0.080591
H	-1.0343	0.529289	1.90275
C	4.99584	-0.339018	-0.511689
C	6.16572	0.0239904	-1.14475
N	7.12394	0.358155	-0.246603
C	6.55069	0.203043	0.939128
N	5.26746	-0.215962	0.832658
H	4.02175	-0.665322	-0.909439
H	6.33553	0.0507666	-2.23346
H	7.02511	0.38236	1.9174
H	4.60556	-0.410099	1.62352
