18
  This energy is -0.513 and Call times are: 205446
C	0.485724	0.770884	0.675434
C	1.084	-0.417447	0.374923
C	0.17677	-1.10476	-0.488011
C	-0.895816	-0.275756	-0.638649
O	-0.724085	0.874231	0.0649483
H	0.812913	1.61605	1.30304
H	2.0657	-0.774227	0.725733
H	0.315205	-2.10038	-0.939292
H	-1.83095	-0.386913	-1.21173
C	6.03901	0.0202393	-1.14742
C	5.29933	-0.563335	-0.14071
N	5.89641	-0.395923	1.06427
C	7.00229	0.288905	0.806087
N	7.1336	0.564166	-0.513223
H	5.86958	0.0848012	-2.234
H	4.34554	-1.10218	-0.262251
H	7.75099	0.614888	1.54596
H	7.9195	1.09147	-0.966621
