18
  This energy is -0.7566 and Call times are: 26488
C	-1.02412	0.48593	-0.0381773
C	-0.829613	-0.770132	0.456647
C	0.570723	-1.02491	0.337218
C	1.10833	0.0979463	-0.220044
O	0.148686	1.03093	-0.455932
H	-1.93591	1.09597	-0.146492
H	-1.59542	-1.44913	0.864806
H	1.10652	-1.94073	0.634369
H	2.14496	0.353482	-0.494532
C	6.46369	0.316665	-0.983394
C	5.17008	-0.150239	-0.88494
N	4.84454	-0.419747	0.402655
C	5.93206	-0.121173	1.10034
N	6.93607	0.327135	0.310028
H	7.06161	0.631711	-1.85333
H	4.4658	-0.297471	-1.71991
H	6.04737	-0.212072	2.19243
H	7.89217	0.625794	0.622955
