18
  This energy is -0.781 and Call times are: 98502
C	-1.07348	0.358955	-0.0720566
C	-0.0226786	1.10325	-0.521731
C	1.14703	0.326436	-0.260096
C	0.707762	-0.823991	0.326362
O	-0.645737	-0.8211	0.449019
H	-2.15833	0.554689	-0.065577
H	-0.0668297	2.09939	-0.990633
H	2.19011	0.60052	-0.48581
H	1.25045	-1.70912	0.696881
C	6.89673	0.307217	0.29647
C	5.81945	0.164077	1.14507
N	4.70606	-0.200701	0.464034
C	5.09116	-0.283544	-0.802244
N	6.40342	0.0134027	-0.955132
H	7.94454	0.588004	0.488269
H	5.82562	0.317473	2.23653
H	4.45291	-0.55738	-1.65774
H	6.94238	0.0187868	-1.85555
