18
  This energy is -0.7776 and Call times are: 112045
C	0.126083	-0.402869	-1.05271
C	-1.07257	0.0454355	-0.580876
C	-0.831463	0.465428	0.762846
C	0.493243	0.2367	0.993521
O	1.09352	-0.293399	-0.104509
H	0.417408	-0.818228	-2.03141
H	-2.03045	0.0771838	-1.12453
H	-1.56523	0.887557	1.46817
H	1.12005	0.40572	1.88448
C	6.19139	0.858776	-0.14594
C	6.18594	-0.374884	-0.761732
N	5.12514	-1.11663	-0.360445
C	4.47497	-0.346055	0.501019
N	5.07811	0.85523	0.664487
H	6.88555	1.71055	-0.224464
H	6.92843	-0.74304	-1.48838
H	3.55189	-0.612073	1.04082
H	4.75857	1.63529	1.28951
