18
  This energy is -0.9474 and Call times are: 137982
C	0.422593	-1.03936	-0.165998
C	0.749826	0.0180553	-0.962976
C	0.0285477	1.1365	-0.444356
C	-0.675775	0.663814	0.623762
O	-0.447035	-0.663081	0.808259
H	0.73672	-2.09582	-0.187495
H	1.43081	0.0111462	-1.82918
H	0.0391103	2.16917	-0.828504
H	-1.36524	1.16355	1.32388
C	4.24131	0.0411289	0.202063
C	4.87438	0.177816	-1.01518
N	6.21909	0.0770143	-0.880614
C	6.41947	-0.121453	0.415179
N	5.258	-0.151108	1.11066
H	3.17482	0.0662158	0.47685
H	4.38495	0.347362	-1.98809
H	7.39642	-0.251498	0.908022
H	5.15215	-0.293425	2.14498
