18
  This energy is -0.8711 and Call times are: 210806
C	-0.800237	-0.627094	-0.502766
C	-0.736845	-0.472178	0.850879
C	0.388553	0.372677	1.09546
C	0.913527	0.659459	-0.13032
O	0.200031	0.0571458	-1.11782
H	-1.4992	-1.19087	-1.14218
H	-1.41459	-0.909024	1.60183
H	0.756856	0.721118	2.07374
H	1.78044	1.27122	-0.429431
C	4.97114	0.867364	0.487136
C	4.51325	-0.379293	0.116557
N	5.51032	-1.12823	-0.413965
C	6.58268	-0.349162	-0.372664
N	6.30925	0.864431	0.162145
H	4.45662	1.72771	0.943886
H	3.48131	-0.751763	0.222483
H	7.59315	-0.617445	-0.72082
H	6.9874	1.6529	0.302488
