18
  This energy is -1.5409 and Call times are: 149275
C	-0.167912	-0.79623	-0.790079
C	0.912817	0.0356471	-0.809557
C	0.773212	0.884783	0.330442
C	-0.380504	0.496841	0.945921
O	-0.968319	-0.528621	0.275165
H	-0.477291	-1.60889	-1.46766
H	1.72668	0.0498942	-1.5522
H	1.45731	1.68829	0.647415
H	-0.884131	0.865669	1.85453
C	5.47459	-1.15684	-0.127791
C	6.44224	-0.178082	-0.0452445
N	5.88517	1.04887	0.0988184
C	4.57689	0.832109	0.105619
N	4.27846	-0.481906	-0.028145
H	5.54999	-2.24944	-0.246434
H	7.53238	-0.335249	-0.087056
H	3.79272	1.59976	0.20574
H	3.31875	-0.905788	-0.0514984
