18
  This energy is -0.8154 and Call times are: 170272
C	0.383858	-0.561498	0.90762
C	1.11679	0.403854	0.282094
C	0.308255	0.86935	-0.799437
C	-0.847382	0.147362	-0.739343
O	-0.81843	-0.731226	0.29712
H	0.602776	-1.19231	1.78477
H	2.12559	0.753107	0.554913
H	0.565535	1.65128	-1.53189
H	-1.75346	0.164237	-1.36703
C	6.79496	0.242291	0.35699
C	5.91627	1.10591	-0.262048
N	4.73903	0.492615	-0.534973
C	4.88684	-0.746763	-0.0869544
N	6.10932	-0.947467	0.459717
H	7.8253	0.385391	0.719589
H	6.11066	2.16054	-0.516637
H	4.13166	-1.54785	-0.133897
H	6.46673	-1.83945	0.881466
