18
  This energy is -0.6303 and Call times are: 194521
C	-1.01743	0.430356	0.256975
C	0.0559255	1.21875	-0.0375089
C	1.1373	0.324006	-0.302405
C	0.629305	-0.932169	-0.146411
O	-0.685295	-0.886036	0.195219
H	-2.05743	0.680871	0.523217
H	0.0834232	2.31991	-0.0653974
H	2.16993	0.593511	-0.576512
H	1.09393	-1.9266	-0.248746
C	5.64002	-0.0551456	-1.11914
C	5.22803	0.846562	-0.160842
N	5.84875	0.619941	1.02231
C	6.64281	-0.418408	0.798862
N	6.55305	-0.861848	-0.477419
H	5.35752	-0.175831	-2.17704
H	4.49401	1.6566	-0.301952
H	7.31104	-0.894155	1.53464
H	7.0788	-1.66681	-0.897981
