18
  This energy is -1.3648 and Call times are: 54396
C	-0.560862	0.421251	-0.891281
C	-0.868326	0.76253	0.392996
C	0.0443004	0.0382327	1.21921
C	0.828893	-0.681715	0.366879
O	0.473254	-0.459894	-0.925919
H	-0.997104	0.732081	-1.85478
H	-1.65852	1.45487	0.725201
H	0.102385	0.0573379	2.31937
H	1.66248	-1.37867	0.552971
C	4.87612	-1.00172	-0.552635
C	3.92336	-0.0812535	-0.9349
N	3.87029	0.956856	-0.0654028
C	4.78665	0.68145	0.852782
N	5.42057	-0.488857	0.60354
H	5.19461	-1.95367	-1.0064
H	3.27329	-0.147598	-1.82251
H	5.03433	1.30245	1.72871
H	6.18177	-0.922853	1.18101
