18
  This energy is -0.9703 and Call times are: 79323
C	-0.163631	-0.748515	-0.836272
C	1.081	-0.40482	-0.396795
C	0.87756	0.547728	0.647897
C	-0.473432	0.702032	0.754595
O	-1.12484	-0.0820751	-0.144212
H	-0.494307	-1.44566	-1.62361
H	2.04559	-0.784029	-0.770767
H	1.65306	1.0539	1.24496
H	-1.08718	1.33026	1.42085
C	5.71486	-0.890699	-0.738637
C	4.78155	-0.863811	0.275938
N	4.80426	0.323183	0.929421
C	5.74807	1.02999	0.322556
N	6.32681	0.341913	-0.689967
H	5.97808	-1.67363	-1.46752
H	4.0922	-1.67963	0.54813
H	6.0558	2.05646	0.579223
H	7.09528	0.682509	-1.31822
