18
  This energy is -2.4355 and Call times are: 116337
C	-0.0369627	-0.871343	0.725118
C	0.205831	-1.03906	-0.606534
C	0.173377	0.269673	-1.17775
C	-0.0863828	1.1216	-0.144741
O	-0.217787	0.441872	1.02475
H	-0.105812	-1.59633	1.55271
H	0.389367	-1.98906	-1.13369
H	0.326748	0.536118	-2.23586
H	-0.200388	2.21758	-0.111946
C	3.54138	-1.12082	0.0158753
C	4.45488	-0.556455	-0.849087
N	4.63181	0.760309	-0.581989
C	3.83111	1.01187	0.444769
N	3.15207	-0.0902446	0.842035
H	3.15373	-2.14859	0.0991881
H	4.98947	-1.0758	-1.66109
H	3.70353	1.98566	0.944466
H	2.46073	-0.148569	1.62938
