18
  This energy is -2.107 and Call times are: 109703
C	0.551402	-0.961033	0.242429
C	0.750502	0.19203	0.943271
C	-0.110412	1.16447	0.348872
C	-0.759604	0.519804	-0.662726
O	-0.367616	-0.779063	-0.742103
H	0.996014	-1.96461	0.344416
H	1.43495	0.342685	1.79352
H	-0.226172	2.219	0.646632
H	-1.51287	0.869277	-1.38779
C	3.96868	1.16125	0.139099
C	4.72554	0.314534	0.921002
N	4.6495	-0.962369	0.473513
C	3.84851	-0.908017	-0.581987
N	3.41175	0.350537	-0.824628
H	3.79284	2.24712	0.198299
H	5.32512	0.602115	1.80001
H	3.54872	-1.75994	-1.21332
H	2.77096	0.651421	-1.5993
