18
  This energy is -1.1715 and Call times are: 96517
C	0.806219	0.292297	-0.742277
C	-0.498617	0.133016	-1.10615
C	-1.19559	-0.230132	0.0865182
C	-0.255142	-0.260708	1.07393
O	0.973018	0.055776	0.585597
H	1.69958	0.568354	-1.32618
H	-0.927314	0.258646	-2.11339
H	-2.27212	-0.442047	0.187858
H	-0.331552	-0.489936	2.14951
C	4.74847	1.11963	0.329472
C	4.16903	0.00446243	0.896742
N	4.56571	-1.12705	0.265202
C	5.3881	-0.715401	-0.690225
N	5.53113	0.631122	-0.692771
H	4.66212	2.19056	0.572771
H	3.47186	-0.00394953	1.7504
H	5.91267	-1.35776	-1.41579
H	6.12507	1.19546	-1.34852
