18
  This energy is -0.684 and Call times are: 11164
C	-0.0366201	0.920894	0.66107
C	1.13753	0.334123	0.29032
C	0.776736	-0.780088	-0.527289
C	-0.586033	-0.775835	-0.583991
O	-1.0994	0.256126	0.136096
H	-0.247148	1.80357	1.28701
H	2.15557	0.653839	0.565033
H	1.45943	-1.49602	-1.01254
H	-1.29856	-1.44347	-1.09567
C	6.61281	-0.98837	-0.487655
C	7.31644	-0.09235	0.289003
N	6.52753	0.935985	0.684818
C	5.33901	0.678894	0.155724
N	5.33899	-0.470393	-0.560328
H	6.91822	-1.92665	-0.97744
H	8.3792	-0.169455	0.570846
H	4.4342	1.29892	0.261169
H	4.52391	-0.887427	-1.07315
