18
  This energy is -1.4617 and Call times are: 208292
C	-1.08762	0.0078667	-0.321585
C	-0.44213	1.13341	0.0989745
C	0.890534	0.725924	0.412156
C	0.941769	-0.612653	0.15533
O	-0.257527	-1.06785	-0.293552
H	-2.12287	-0.156932	-0.6627
H	-0.862288	2.14875	0.180483
H	1.70908	1.36251	0.784764
H	1.76079	-1.34443	0.249976
C	4.70053	-0.942077	0.705396
C	4.52551	0.372951	1.08118
N	4.58315	1.19941	0.00872664
C	4.79314	0.400139	-1.02843
N	4.87149	-0.900617	-0.660344
H	4.71505	-1.8734	1.29359
H	4.35868	0.740203	2.10692
H	4.89738	0.714908	-2.07928
H	5.0319	-1.7212	-1.29451
