18
  This energy is -1.2799 and Call times are: 91644
C	1.09623	0.175359	-0.232244
C	0.634845	-1.00882	0.262966
C	-0.774968	-0.843477	0.421735
C	-1.05065	0.427137	0.00953058
O	0.0804748	1.06381	-0.393237
H	2.11082	0.506922	-0.507781
H	1.22781	-1.90849	0.493342
H	-1.49242	-1.58947	0.799685
H	-1.99767	0.988753	-0.0450958
C	4.57379	-0.860402	-0.73375
C	5.01575	0.398999	-1.07976
N	5.30639	1.13434	0.0208345
C	5.04573	0.334171	1.04573
N	4.60128	-0.879813	0.642861
H	4.25238	-1.71566	-1.34919
H	5.13012	0.790231	-2.10382
H	5.16275	0.586669	2.11193
H	4.32943	-1.68283	1.26134
