18
  This energy is -1.0941 and Call times are: 180787
C	0.948743	0.00382153	0.621509
C	0.95487	-0.246526	-0.719261
C	-0.407988	-0.163883	-1.13867
C	-1.12663	0.129672	-0.0171769
O	-0.314086	0.235706	1.06705
H	1.76503	0.0452761	1.36124
H	1.83119	-0.46725	-1.34968
H	-0.79843	-0.30779	-2.15894
H	-2.20662	0.286118	0.138987
C	6.0739	0.740642	0.487469
C	5.2527	-0.149769	1.14622
N	4.48739	-0.847344	0.272029
C	4.8325	-0.391424	-0.924492
N	5.78567	0.567322	-0.847848
H	6.81817	1.46132	0.861927
H	5.19871	-0.301352	2.23661
H	4.41869	-0.724837	-1.8898
H	6.22198	1.0808	-1.65235
