18
  This energy is -0.8861 and Call times are: 155207
C	-0.478629	-0.955741	0.379308
C	0.83747	-0.665025	0.58845
C	1.06065	0.603377	-0.0291789
C	-0.138773	0.975793	-0.561222
O	-1.09013	0.035406	-0.3212
H	-1.09153	-1.82331	0.674152
H	1.57694	-1.2819	1.12393
H	2.00756	1.16548	-0.067777
H	-0.441146	1.87308	-1.12575
C	6.39859	0.723745	-0.472798
C	5.13545	1.05904	-0.0332691
N	4.48435	-0.0245491	0.45501
C	5.34031	-1.02825	0.318913
N	6.50904	-0.62821	-0.235719
H	7.19997	1.33127	-0.922512
H	4.68224	2.0634	-0.059724
H	5.16241	-2.07632	0.608973
H	7.34085	-1.23275	-0.445223
