18
  This energy is -1.2097 and Call times are: 94312
C	0.872711	-0.697217	-0.196631
C	0.592405	0.367275	-1.00202
C	-0.56058	0.992522	-0.436508
C	-0.883063	0.254915	0.664543
O	-0.0182782	-0.780958	0.826178
H	1.66717	-1.46005	-0.24323
H	1.14239	0.680751	-1.90388
H	-1.08229	1.88716	-0.812722
H	-1.69287	0.362052	1.4048
C	4.22552	0.56579	0.339655
C	4.45128	-0.0336633	-0.881342
N	5.68446	-0.593478	-0.930273
C	6.22168	-0.342275	0.255858
N	5.38145	0.354167	1.05746
H	3.35319	1.10985	0.735354
H	3.74645	-0.0722564	-1.72785
H	7.22706	-0.645358	0.589897
H	5.57388	0.672312	2.03879
