18
  This energy is -1.1501 and Call times are: 60402
C	0.588171	0.0789727	-0.96655
C	0.695246	-0.994535	-0.13199
C	-0.186008	-0.729913	0.960477
C	-0.753811	0.48194	0.697068
O	-0.292466	0.990384	-0.475816
H	1.07848	0.310641	-1.92633
H	1.33102	-1.88356	-0.271674
H	-0.369349	-1.37298	1.83623
H	-1.48968	1.0818	1.25735
C	4.91905	-0.209943	1.15189
C	4.693	-1.14078	0.160132
N	4.60852	-0.548509	-1.05584
C	4.78151	0.744845	-0.819338
N	4.97255	1.00004	0.496705
H	5.04154	-0.319293	2.24119
H	4.58934	-2.22913	0.300193
H	4.77761	1.54834	-1.5734
H	5.1312	1.94046	0.934545
