18
  This energy is -1.3687 and Call times are: 195986
C	-0.192555	0.711662	0.861893
C	-1.13108	-0.175834	0.423831
C	-0.524543	-0.884103	-0.658107
C	0.731081	-0.366896	-0.78569
O	0.950856	0.608743	0.134549
H	-0.215351	1.45996	1.67108
H	-2.14844	-0.317521	0.822586
H	-0.978131	-1.68412	-1.26501
H	1.55222	-0.604087	-1.48191
C	5.07712	-0.650297	-0.940964
C	5.76212	0.446355	-0.462143
N	5.16162	0.953853	0.641651
C	4.10809	0.175002	0.846812
N	4.01337	-0.807017	-0.0806882
H	5.26507	-1.30833	-1.80422
H	6.67888	0.880484	-0.893348
H	3.37327	0.279085	1.66133
H	3.27104	-1.54683	-0.134261
