18
  This energy is -1.067 and Call times are: 184634
C	-0.187077	0.0601237	1.11704
C	-0.308705	1.14304	0.296749
C	0.00241823	0.67561	-1.01658
C	0.286703	-0.651676	-0.882905
O	0.175906	-1.04448	0.413412
H	-0.32968	-0.0531643	2.20428
H	-0.589358	2.16816	0.587347
H	0.0109516	1.26627	-1.94671
H	0.576998	-1.41534	-1.62304
C	5.8399	0.151064	0.250813
C	4.98777	-0.781959	0.802626
N	3.74134	-0.673687	0.281857
C	3.81992	0.322715	-0.589712
N	5.06467	0.85291	-0.645082
H	6.90748	0.358342	0.426401
H	5.25001	-1.53131	1.56719
H	2.99623	0.704952	-1.21394
H	5.37928	1.64728	-1.25439
