18
  This energy is -2.0942 and Call times are: 8092
C	0.00170728	-0.490645	-1.02258
C	0.576974	0.724883	-0.794691
C	0.372026	1.0007	0.591686
C	-0.310389	-0.0706351	1.08861
O	-0.545029	-0.991034	0.11659
H	-0.0845144	-1.09857	-1.93814
H	1.09379	1.36325	-1.52919
H	0.698347	1.89543	1.14582
H	-0.681776	-0.294791	2.10206
C	3.67955	-1.07778	0.418201
C	4.20345	-0.010432	1.11637
N	4.32477	1.08082	0.322046
C	3.87782	0.691944	-0.864392
N	3.47716	-0.601508	-0.857885
H	3.44427	-2.10818	0.728777
H	4.49608	-0.00820158	2.17902
H	3.82195	1.31396	-1.77225
H	3.08673	-1.13912	-1.67017
