18
  This energy is -1.3071 and Call times are: 82103
C	0.118957	-1.11478	0.17183
C	-1.10289	-0.520263	0.0534059
C	-0.843396	0.86929	-0.151349
C	0.514113	1.00125	-0.139972
O	1.11779	-0.200453	0.0562502
H	0.407678	-2.16564	0.337893
H	-2.08808	-1.01101	0.105057
H	-1.58739	1.67013	-0.290016
H	1.16389	1.88381	-0.258806
C	4.22008	0.902909	0.483255
C	4.18461	-0.414839	0.887514
N	4.97511	-1.1878	0.103841
C	5.49899	-0.352755	-0.783214
N	5.07459	0.91948	-0.596431
H	3.71457	1.80011	0.874437
H	3.60279	-0.821697	1.73061
H	6.19906	-0.620047	-1.59111
H	5.34497	1.75862	-1.16564
