18
  This energy is -0.7595 and Call times are: 178061
C	-0.735261	-0.835423	0.218773
C	0.590211	-0.929792	0.526333
C	1.17815	0.301602	0.104301
C	0.160063	1.03975	-0.4239
O	-1.01561	0.360782	-0.362185
H	-1.57065	-1.54065	0.360334
H	1.10252	-1.78114	1.00261
H	2.23695	0.594828	0.188308
H	0.142741	2.04789	-0.869553
C	5.11381	-0.00411298	-0.642261
C	5.28451	-0.542904	0.615399
N	6.55177	-0.357726	1.05842
C	7.16491	0.293467	0.0793221
N	6.3403	0.530299	-0.968303
H	4.23563	0.0355091	-1.30616
H	4.51598	-1.06193	1.21106
H	8.21699	0.621122	0.0775236
H	6.58806	1.02649	-1.85919
