18
  This energy is -0.9126 and Call times are: 146346
C	0.953682	0.419902	-0.447855
C	-0.01481	-0.165484	-1.20925
C	-1.04168	-0.561652	-0.298911
C	-0.610038	-0.183386	0.938415
O	0.60676	0.417608	0.866166
H	1.92279	0.870829	-0.71756
H	-0.00689651	-0.304379	-2.30229
H	-1.98823	-1.06878	-0.5458
H	-1.06971	-0.283687	1.93536
C	4.52478	0.106959	0.650079
C	5.27956	-1.03308	0.471843
N	6.33733	-0.796559	-0.3416
C	6.23914	0.485334	-0.666765
N	5.16274	1.07425	-0.0939341
H	3.60936	0.292184	1.23423
H	5.07984	-2.02203	0.915617
H	6.9284	1.04324	-1.3209
H	4.86994	2.0767	-0.196945
