18
  This energy is -1.0483 and Call times are: 15421
C	0.621951	-0.521993	-0.791897
C	0.420778	-1.0548	0.447465
C	-0.400418	-0.118598	1.14695
C	-0.628574	0.903666	0.273281
O	-0.0116935	0.673907	-0.915702
H	1.18835	-0.890404	-1.66294
H	0.811472	-2.01116	0.830664
H	-0.77302	-0.204757	2.18031
H	-1.20479	1.83789	0.375497
C	5.74427	0.255973	0.778956
C	4.38927	0.461807	0.929713
N	3.70746	0.0494729	-0.166476
C	4.63596	-0.410412	-0.99413
N	5.88028	-0.307781	-0.469992
H	6.59307	0.463843	1.44968
H	3.89138	0.900448	1.8098
H	4.45963	-0.83337	-1.99625
H	6.77766	-0.601668	-0.927804
