18
  This energy is -0.5605 and Call times are: 196595
C	0.98238	-0.232474	-0.516998
C	-0.0309975	0.434688	-1.14016
C	-1.08322	0.533258	-0.179318
C	-0.619957	-0.082371	0.946187
O	0.639918	-0.55591	0.757804
H	1.98305	-0.534421	-0.867332
H	-0.036946	0.818865	-2.17286
H	-2.06721	1.00905	-0.318918
H	-1.08335	-0.247169	1.93278
C	6.58035	0.787689	0.549324
C	5.23267	0.902198	0.281408
N	4.76852	-0.19363	-0.366846
C	5.82424	-0.984952	-0.500581
N	6.94087	-0.438041	0.0357095
H	7.28487	1.46898	1.05235
H	4.58692	1.75588	0.544247
H	5.83539	-1.97558	-0.983046
H	7.89876	-0.866166	0.0563249
