18
  This energy is -0.8465 and Call times are: 128002
C	0.710186	0.644354	-0.605677
C	-0.634271	0.62522	-0.834678
C	-1.17957	-0.292186	0.114603
C	-0.120197	-0.75268	0.839896
O	1.04172	-0.191268	0.413554
H	1.52687	1.2023	-1.09248
H	-1.1866	1.19952	-1.59573
H	-2.23875	-0.570605	0.235899
H	-0.0622426	-1.47121	1.67392
C	6.76391	1.11467	0.10085
C	5.76146	0.502884	0.823322
N	5.60709	-0.789814	0.447007
C	6.51034	-0.97926	-0.505299
N	7.23301	0.139313	-0.750505
H	7.16333	2.14087	0.131289
H	5.14683	0.971076	1.60937
H	6.68503	-1.91743	-1.05625
H	8.00381	0.243684	-1.45494
