18
  This energy is -1.2071 and Call times are: 110698
C	0.515347	-0.440425	0.90931
C	1.17123	-0.217943	-0.265718
C	0.201236	0.335405	-1.15624
C	-0.96177	0.402218	-0.446788
O	-0.788235	-0.0674604	0.81666
H	0.859271	-0.853709	1.87168
H	2.23172	-0.42293	-0.483524
H	0.360121	0.644749	-2.20178
H	-1.9675	0.758862	-0.723489
C	4.88085	1.0509	0.516236
C	5.14617	0.808155	-0.814862
N	5.21769	-0.521971	-1.06418
C	4.99757	-1.10219	0.107791
N	4.78897	-0.196379	1.09246
H	4.75511	1.99159	1.07556
H	5.28727	1.56894	-1.59981
H	4.97807	-2.18685	0.301109
H	4.59432	-0.404559	2.10243
