18
  This energy is -1.3492 and Call times are: 12278
C	-1.09282	-0.0368479	-0.301298
C	-0.167119	0.683501	-0.997389
C	1.07437	0.48278	-0.320232
C	0.797722	-0.342509	0.729882
O	-0.52105	-0.669818	0.756736
H	-2.17526	-0.178396	-0.454718
H	-0.341072	1.29488	-1.89742
H	2.05437	0.907589	-0.590848
H	1.44269	-0.763343	1.51866
C	5.08277	-0.479703	-1.03683
C	4.80034	-1.14901	0.135091
N	4.51483	-0.281731	1.1365
C	4.61974	0.921044	0.587909
N	4.96017	0.855	-0.721038
H	5.3533	-0.846505	-2.03973
H	4.79746	-2.24217	0.275993
H	4.45799	1.8836	1.09934
H	5.10342	1.66601	-1.37142
