18
  This energy is -1.3057 and Call times are: 178318
C	-0.700091	-0.529987	0.717904
C	0.0895825	-1.20607	-0.165103
C	0.81569	-0.207967	-0.883905
C	0.405632	0.989932	-0.376693
O	-0.519916	0.812109	0.602466
H	-1.42351	-0.883444	1.47089
H	0.154272	-2.29809	-0.297041
H	1.55529	-0.372255	-1.68396
H	0.692524	2.02524	-0.623847
C	5.07475	-0.526996	0.939138
C	4.16404	0.508246	0.943452
N	3.83025	0.870662	-0.318987
C	4.53123	0.0633238	-1.1035
N	5.29718	-0.797753	-0.392553
H	5.56398	-1.07201	1.76203
H	3.74183	1.00015	1.83486
H	4.52121	0.0598763	-2.20537
H	5.93834	-1.53177	-0.78165
