18
  This energy is -1.2961 and Call times are: 205606
C	0.910203	-0.254474	0.627036
C	0.769793	0.947259	-0.00264523
C	-0.486207	0.889207	-0.680295
C	-1.00245	-0.342875	-0.404895
O	-0.162869	-1.05472	0.392226
H	1.71563	-0.65686	1.26314
H	1.47949	1.79005	0.00890927
H	-0.943952	1.67803	-1.29861
H	-1.94462	-0.826035	-0.711679
C	5.5929	-1.07509	-0.438256
C	6.45199	0.00251944	-0.481451
N	5.90653	1.08674	0.121407
C	4.71358	0.683294	0.537018
N	4.4774	-0.612689	0.223591
H	5.69306	-2.10396	-0.81896
H	7.45562	0.0171024	-0.93681
H	3.97303	1.29602	1.07589
H	3.60982	-1.16082	0.442963
