18
  This energy is -1.2865 and Call times are: 194729
C	0.788214	-0.188076	0.793566
C	-0.473781	-0.69785	0.882283
C	-1.16002	-0.248663	-0.287089
C	-0.256788	0.495949	-0.987165
O	0.938321	0.543601	-0.341832
H	1.65954	-0.272371	1.4636
H	-0.880633	-1.32707	1.69015
H	-2.20472	-0.460371	-0.566148
H	-0.340292	1.03665	-1.9442
C	5.36378	1.1706	-0.103543
C	6.41866	0.282907	-0.0839637
N	5.98128	-0.992888	0.0485375
C	4.66009	-0.897028	0.110921
N	4.23871	0.386874	0.0236045
H	5.33506	2.26795	-0.195879
H	7.4875	0.540143	-0.16307
H	3.95335	-1.73535	0.220389
H	3.24439	0.721533	0.0480968
