18
  This energy is -0.8465 and Call times are: 77266
C	-0.164104	0.945379	0.604755
C	1.07933	0.439767	0.362682
C	0.87699	-0.738129	-0.419454
C	-0.47223	-0.848331	-0.586289
O	-1.12355	0.171355	0.0326053
H	-0.495006	1.83678	1.16258
H	2.04242	0.85465	0.700958
H	1.652	-1.41809	-0.808168
H	-1.08467	-1.59586	-1.11673
C	5.37245	-0.952182	-0.543733
C	4.86311	-0.344992	0.584558
N	5.60703	0.731061	0.938421
C	6.57419	0.791195	0.0330996
N	6.47649	-0.20199	-0.882121
H	5.03853	-1.83557	-1.11089
H	3.97219	-0.66406	1.14962
H	7.37984	1.54192	-0.00651152
H	7.11929	-0.368778	-1.69468
