18
  This energy is -1.5574 and Call times are: 112205
C	-0.278169	1.03975	-0.357686
C	0.455349	0.828047	0.772583
C	0.596097	-0.588658	0.887715
C	-0.0638358	-1.11762	-0.182361
O	-0.603866	-0.137486	-0.953542
H	-0.629592	1.96764	-0.838082
H	0.857016	1.5928	1.45663
H	1.12859	-1.14072	1.67877
H	-0.219422	-2.16094	-0.502563
C	4.34714	0.398864	1.09743
C	3.92408	-0.85919	0.723976
N	3.86758	-0.975266	-0.62504
C	4.25412	0.206284	-1.08672
N	4.55421	1.06933	-0.087383
H	4.51005	0.84944	2.08939
H	3.6586	-1.68519	1.40375
H	4.33539	0.493221	-2.14752
H	4.88215	2.06039	-0.194683
