18
  This energy is -0.7723 and Call times are: 33304
C	-1.07207	-0.0931677	0.358297
C	-0.158109	-1.09245	0.520996
C	1.05775	-0.607072	-0.0501506
C	0.779447	0.645973	-0.51145
O	-0.516682	0.976071	-0.270416
H	-2.13485	-0.0210907	0.642124
H	-0.323531	-2.07301	0.995597
H	2.02246	-1.13647	-0.106427
H	1.40842	1.39341	-1.02232
C	6.66135	0.587358	-0.546052
C	5.3136	0.639615	-0.832336
N	4.60644	-0.166467	-0.00368223
C	5.51205	-0.716703	0.793645
N	6.76611	-0.294133	0.506654
H	7.52454	1.09804	-1.00175
H	4.83878	1.24451	-1.62196
H	5.31138	-1.43553	1.60435
H	7.64983	-0.582968	0.993339
