18
  This energy is -0.8792 and Call times are: 69274
C	-0.512389	0.915371	-0.431224
C	-1.01318	-0.343649	-0.587587
C	-0.102022	-1.2133	0.0859217
C	0.875131	-0.408941	0.594401
O	0.640483	0.894186	0.288116
H	-0.877406	1.89577	-0.778833
H	-1.93204	-0.63112	-1.12345
H	-0.173967	-2.30911	0.176078
H	1.7779	-0.638576	1.18391
C	5.76198	0.456703	-1.05256
C	4.52464	0.435368	-0.444541
N	4.58546	-0.170743	0.766014
C	5.85569	-0.524078	0.908449
N	6.6056	-0.167908	-0.161298
H	6.0909	0.858756	-2.024
H	3.58913	0.846457	-0.857653
H	6.29044	-1.04588	1.77618
H	7.63379	-0.335619	-0.287682
