18
  This energy is -1.3308 and Call times are: 59358
C	-0.250563	-1.09381	0.16489
C	-0.217723	-0.531188	-1.07718
C	0.130078	0.839527	-0.876449
C	0.279071	0.993521	0.47057
O	0.0503367	-0.177085	1.12201
H	-0.471397	-2.12176	0.496261
H	-0.418297	-1.03125	-2.03833
H	0.252781	1.61353	-1.65101
H	0.542167	1.87279	1.08124
C	4.91987	-0.784723	0.849093
C	3.75275	-0.0753568	0.659945
N	3.84669	0.741775	-0.417079
C	5.06744	0.540102	-0.894274
N	5.75413	-0.371475	-0.165519
H	5.20625	-1.52952	1.60857
H	2.84459	-0.138521	1.28131
H	5.50941	1.03359	-1.77482
H	6.73513	-0.700715	-0.340131
