18
  This energy is -0.8279 and Call times are: 72060
C	0.497063	0.813846	-0.613991
C	-0.835218	0.537626	-0.709406
C	-1.07914	-0.532372	0.204775
C	0.125621	-0.815555	0.778132
O	1.09945	-0.00301758	0.28982
H	1.12831	1.55698	-1.12832
H	-1.57227	1.03724	-1.35844
H	-2.0429	-1.02732	0.405466
H	0.41748	-1.56122	1.5358
C	4.59344	0.550298	-0.262887
C	5.31383	0.657528	0.907879
N	6.42515	-0.117123	0.870481
C	6.39431	-0.702699	-0.318962
N	5.30944	-0.332742	-1.03992
H	3.65331	1.02408	-0.587262
H	5.05161	1.27997	1.77889
H	7.14086	-1.41109	-0.712761
H	5.06106	-0.656832	-2.00663
