18
  This energy is -0.7792 and Call times are: 12471
C	-0.0681947	-0.996755	0.53687
C	-0.75462	-0.738001	-0.613018
C	-0.415186	0.600476	-0.978232
C	0.448698	1.04149	-0.0192824
O	0.671843	0.0789838	0.913886
H	-0.0222982	-1.89478	1.1746
H	-1.43203	-1.42115	-1.15016
H	-0.777096	1.16144	-1.85484
H	0.966884	2.00583	0.110289
C	6.54754	0.0921372	0.244445
C	5.90614	-0.989636	-0.320815
N	4.57918	-0.752643	-0.460556
C	4.39806	0.471499	0.0162001
N	5.55477	1.02321	0.453493
H	7.60492	0.259695	0.504075
H	6.37708	-1.93688	-0.630319
H	3.43916	1.01184	0.0687703
H	5.67284	1.97827	0.872038
