18
  This energy is -1.1938 and Call times are: 162586
C	0.20736	-0.937519	0.603706
C	0.914886	0.215361	0.778776
C	0.368431	1.15414	-0.148695
C	-0.624786	0.49206	-0.808653
O	-0.737034	-0.786531	-0.361868
H	0.278121	-1.92081	1.09703
H	1.73893	0.387436	1.48971
H	0.684553	2.1988	-0.299834
H	-1.31436	0.814981	-1.60581
C	4.74586	1.11137	0.29218
C	4.07337	0.31967	-0.614527
N	4.63885	-0.9086	-0.70451
C	5.65827	-0.879002	0.143151
N	5.76485	0.317185	0.768743
H	4.57703	2.1491	0.621048
H	3.19028	0.612726	-1.20539
H	6.3587	-1.70551	0.344439
H	6.48628	0.588031	1.48109
