18
  This energy is -0.6507 and Call times are: 169513
C	-0.474902	-0.23768	-1.00219
C	-0.68551	-1.00435	0.106074
C	0.069737	-0.393589	1.15331
C	0.675195	0.692388	0.592547
O	0.35365	0.802862	-0.723286
H	-0.851864	-0.325542	-2.03438
H	-1.31005	-1.9092	0.178826
H	0.147193	-0.730742	2.19945
H	1.34908	1.45434	1.01747
C	5.01388	-0.642468	0.857913
C	4.66841	0.639892	0.487312
N	5.43633	1.07496	-0.541052
C	6.25508	0.0663327	-0.807407
N	6.03994	-0.99245	0.00885547
H	4.61547	-1.30853	1.63968
H	3.87882	1.25898	0.943522
H	7.0311	0.0499764	-1.58955
H	6.55637	-1.90592	-0.00283712
