18
  This energy is -0.6498 and Call times are: 79803
C	-0.914263	-0.664646	-0.0936502
C	-0.412336	-0.278865	1.1145
C	0.72223	0.53858	0.823531
C	0.813464	0.580167	-0.536733
O	-0.177978	-0.149159	-1.11305
H	-1.7783	-1.29596	-0.358485
H	-0.801959	-0.543398	2.11064
H	1.38718	1.03386	1.54923
H	1.52807	1.08625	-1.20642
C	6.86626	-0.667382	-0.0776397
C	6.61023	0.312299	0.858211
N	5.39818	0.881741	0.650408
C	4.90417	0.257699	-0.410323
N	5.75165	-0.685195	-0.886044
H	7.73382	-1.331	-0.220782
H	7.27835	0.618449	1.67964
H	3.92655	0.451869	-0.880199
H	5.59038	-1.31065	-1.71312
