18
  This energy is -1.4393 and Call times are: 89760
C	-0.786259	0.0404474	0.816433
C	-0.646851	1.02893	-0.112995
C	0.431739	0.622967	-0.956767
C	0.856228	-0.577762	-0.46847
O	0.123543	-0.948719	0.614385
H	-1.48477	-0.0753952	1.66137
H	-1.24368	1.95142	-0.196071
H	0.837452	1.16811	-1.82412
H	1.65847	-1.25847	-0.797562
C	4.42286	0.275191	1.13048
C	3.87083	0.89768	0.0309759
N	4.29274	0.320611	-1.12032
C	5.10344	-0.65616	-0.736513
N	5.21484	-0.724501	0.611267
H	4.31188	0.466478	2.20966
H	3.17566	1.75285	0.0477911
H	5.64156	-1.35127	-1.40095
H	5.79413	-1.40867	1.15678
