18
  This energy is -0.6222 and Call times are: 116890
C	-1.0215	-0.467003	0.157618
C	-0.576329	-0.0820902	-1.07284
C	0.732018	0.4522	-0.865768
C	0.97086	0.346618	0.472956
O	-0.0894151	-0.212561	1.11338
H	-1.96926	-0.927943	0.480955
H	-1.11522	-0.165986	-2.03027
H	1.40923	0.864922	-1.63071
H	1.84354	0.62909	1.08442
C	7.19884	-0.413392	-0.465314
C	7.05198	0.217551	0.75185
N	5.75979	0.562238	0.970784
C	5.10748	0.146711	-0.106462
N	5.93107	-0.448075	-1.00174
H	8.0862	-0.826388	-0.970857
H	7.85526	0.430235	1.47597
H	4.02631	0.25254	-0.291117
H	5.65624	-0.85762	-1.92802
