18
  This energy is -0.6896 and Call times are: 9884
C	0.714058	0.704343	-0.529549
C	-0.627185	0.941671	-0.45802
C	-1.17917	-0.15205	0.276287
C	-0.126505	-0.961184	0.588661
O	1.03742	-0.453495	0.104373
H	1.53359	1.27487	-0.996591
H	-1.17308	1.80075	-0.880018
H	-2.23813	-0.309582	0.536823
H	-0.0750062	-1.91247	1.14333
C	5.43451	0.533307	0.883687
C	4.90853	0.177395	-0.340166
N	5.84321	-0.420011	-1.11863
C	6.94484	-0.434659	-0.380518
N	6.74985	0.128664	0.835309
H	4.98102	1.02935	1.75651
H	3.87137	0.340966	-0.675411
H	7.92192	-0.845649	-0.681571
H	7.4645	0.236609	1.59616
