18
  This energy is -1.1762 and Call times are: 118301
C	-0.706486	-0.0885029	-0.882862
C	0.356877	-0.925331	-0.71154
C	0.995815	-0.503827	0.494367
C	0.266494	0.553366	0.953502
O	-0.776878	0.820794	0.124727
H	-1.47713	-0.0371726	-1.66945
H	0.660836	-1.75609	-1.36846
H	1.89366	-0.942805	0.958332
H	0.384868	1.19118	1.84481
C	4.2765	0.68473	0.251783
C	5.39268	0.47986	1.03493
N	6.2605	-0.371229	0.435725
C	5.68488	-0.693127	-0.714784
N	4.48679	-0.0821321	-0.872445
H	3.37743	1.30139	0.409661
H	5.58736	0.930907	2.0216
H	6.09705	-1.37186	-1.47876
H	3.8411	-0.174909	-1.69447
