18
  This energy is -0.7163 and Call times are: 210232
C	-0.379126	0.654747	-0.844968
C	-0.95477	-0.541916	-0.533507
C	-0.208389	-1.05973	0.56872
C	0.757468	-0.133779	0.833514
O	0.668025	0.919855	-0.0202232
H	-0.617946	1.40114	-1.62028
H	-1.81835	-1.01276	-1.03012
H	-0.378218	-2.01187	1.09662
H	1.55716	-0.107863	1.59184
C	4.67204	-0.317475	0.10959
C	5.22414	0.439287	-0.902161
N	6.55458	0.613231	-0.711951
C	6.82682	-0.0331618	0.413522
N	5.72474	-0.611175	0.947298
H	3.63899	-0.656485	0.286829
H	4.68633	0.86289	-1.76597
H	7.81631	-0.114996	0.891479
H	5.6806	-1.17553	1.83093
