18
  This energy is -0.9757 and Call times are: 22797
C	-0.379338	1.06068	0.13216
C	-0.464573	0.125846	1.12171
C	0.109482	-1.06632	0.58383
C	0.494838	-0.754768	-0.686921
O	0.203936	0.540134	-0.979522
H	-0.693096	2.11682	0.0951557
H	-0.889104	0.262118	2.12933
H	0.218531	-2.03816	1.0915
H	0.979821	-1.35741	-1.47233
C	3.9677	0.307896	-0.0904905
C	4.61395	-0.146374	1.03962
N	5.91882	-0.40832	0.784298
C	6.08147	-0.11766	-0.499325
N	4.93417	0.318366	-1.07131
H	2.92329	0.614241	-0.260484
H	4.16205	-0.28981	2.03464
H	7.01963	-0.205865	-1.07056
H	4.8054	0.609025	-2.07141
