18
  This energy is -0.8736 and Call times are: 130579
C	0.525896	-1.00225	-0.0729582
C	-0.0714032	-0.410888	-1.14715
C	-0.615395	0.818392	-0.664389
C	-0.3025	0.869704	0.6622
O	0.394442	-0.234037	1.0404
H	1.06994	-1.95571	0.0279457
H	-0.12368	-0.801168	-2.17625
H	-1.17331	1.57072	-1.24476
H	-0.515368	1.62667	1.43482
C	6.42233	0.223136	0.275107
C	5.8249	0.382942	-0.957244
N	4.51714	0.030047	-0.915719
C	4.30407	-0.347251	0.337626
N	5.42206	-0.249047	1.09529
H	7.45408	0.405912	0.615136
H	6.31406	0.746551	-1.87559
H	3.34833	-0.704191	0.754022
H	5.51011	-0.487223	2.11351
