18
  This energy is -0.8194 and Call times are: 132892
C	-0.39227	1.0639	0.0251516
C	-0.754013	0.129956	0.951033
C	-0.0640765	-1.06715	0.589041
C	0.658371	-0.759062	-0.526093
O	0.469845	0.53825	-0.884495
H	-0.675018	2.12269	-0.0943228
H	-1.43808	0.26998	1.80341
H	-0.106849	-2.03983	1.10495
H	1.3356	-1.36593	-1.14924
C	6.02488	0.565255	-0.123287
C	4.87444	0.768534	-0.855611
N	3.88191	-0.0582272	-0.445884
C	4.4146	-0.771693	0.536886
N	5.70491	-0.433158	0.769448
H	7.01558	1.04444	-0.172604
H	4.74278	1.49694	-1.67228
H	3.90429	-1.55514	1.12
H	6.34048	-0.851536	1.49213
