18
  This energy is -1.0332 and Call times are: 22984
C	0.695816	0.580455	-0.682138
C	-0.293995	-0.225389	-1.16304
C	-0.943521	-0.774221	-0.0154235
C	-0.293288	-0.255311	1.06546
O	0.71073	0.574096	0.676813
H	1.44606	1.20329	-1.19641
H	-0.541868	-0.414375	-2.21989
H	-1.79512	-1.47334	-0.00557855
H	-0.446797	-0.396128	2.14798
C	5.25586	-1.01821	0.198401
C	4.68785	-0.602882	-0.987353
N	4.13089	0.625802	-0.858371
C	4.35253	0.971402	0.402605
N	5.02742	0.0135445	1.08129
H	5.78869	-1.94408	0.467452
H	4.66994	-1.16778	-1.93362
H	4.04223	1.91438	0.880867
H	5.32078	0.0499244	2.0882
