18
  This energy is -0.9741 and Call times are: 27996
C	0.835802	0.0853709	0.761937
C	0.00701855	1.12772	0.46699
C	-0.89996	0.638365	-0.521967
C	-0.545354	-0.659828	-0.744054
O	0.512834	-1.0143	0.0315747
H	1.68208	1.28308e-05	1.46321
H	0.0318658	2.13969	0.902181
H	-1.71814	1.19548	-1.006
H	-0.96105	-1.42608	-1.41882
C	5.05027	-0.637588	-0.987951
C	5.66898	0.57165	-0.751113
N	5.39517	1.02454	0.496458
C	4.6096	0.0997844	1.03154
N	4.37221	-0.922729	0.176146
H	5.0447	-1.29351	-1.87298
H	6.30802	1.12543	-1.45807
H	4.18003	0.121531	2.04605
H	3.78375	-1.77109	0.363933
