18
  This energy is -1.5275 and Call times are: 204966
C	-0.382498	0.654713	-0.843473
C	0.87529	0.78336	-0.331816
C	0.981121	-0.200923	0.697797
C	-0.221338	-0.844163	0.72443
O	-1.06617	-0.334506	-0.21019
H	-0.903706	1.19905	-1.64801
H	1.65077	1.49954	-0.647747
H	1.85497	-0.39963	1.33888
H	-0.595294	-1.66936	1.35249
C	4.72229	-0.0312477	-0.882773
C	6.05935	-0.362086	-0.945781
N	6.65776	-0.209814	0.260546
C	5.6956	0.213878	1.06885
N	4.50981	0.3375	0.42683
H	3.93329	-0.0320952	-1.65155
H	6.60296	-0.707928	-1.84006
H	5.80477	0.448691	2.13992
H	3.6016	0.653956	0.846682
