18
  This energy is -0.7316 and Call times are: 28959
C	0.603282	0.864533	-0.418371
C	-0.49607	1.05329	0.366594
C	-0.974324	-0.253083	0.690313
C	-0.125006	-1.12482	0.0745902
O	0.844476	-0.459573	-0.607002
H	1.29052	1.58045	-0.898403
H	-0.926993	2.01589	0.685653
H	-1.84978	-0.50474	1.31026
H	-0.103214	-2.22659	0.04498
C	5.9513	-0.0896638	0.807673
C	5.30321	-1.12619	0.169924
N	4.37625	-0.660179	-0.701903
C	4.449	0.660432	-0.605379
N	5.38383	1.054	0.291723
H	6.74954	-0.0851	1.56684
H	5.48786	-2.20195	0.323244
H	3.84086	1.38647	-1.16865
H	5.62953	2.04209	0.545821
