18
  This energy is -0.8259 and Call times are: 120155
C	0.53909	-0.890362	0.450598
C	0.955225	0.39312	0.650299
C	0.035571	1.21829	-0.0662515
C	-0.861367	0.366217	-0.640571
O	-0.569034	-0.925465	-0.33543
H	0.940013	-1.85295	0.808288
H	1.82277	0.725456	1.24276
H	0.0483042	2.31762	-0.139817
H	-1.74005	0.551776	-1.27989
C	4.6542	0.0333075	-0.266673
C	5.20895	-0.218835	0.970183
N	6.56247	-0.179483	0.915832
C	6.84632	0.0960248	-0.349929
N	5.72951	0.233601	-1.10319
H	3.60529	0.0827338	-0.599669
H	4.65682	-0.428444	1.90081
H	7.85511	0.20812	-0.778897
H	5.69025	0.451357	-2.12901
