18
  This energy is -0.8166 and Call times are: 148485
C	-0.915393	-0.647097	-0.172403
C	-0.638941	-0.0801203	1.03693
C	0.576615	0.648373	0.858496
C	0.935666	0.46226	-0.444123
O	0.035795	-0.326359	-1.08858
H	-1.74603	-1.29092	-0.505255
H	-1.23155	-0.166253	1.96186
H	1.11385	1.23937	1.61757
H	1.79636	0.832067	-1.02525
C	5.45116	-0.546719	1.03152
C	4.55441	-0.494987	-0.0145723
N	5.05328	0.221855	-1.05081
C	6.25494	0.613342	-0.649092
N	6.54133	0.175307	0.599785
H	5.39263	-1.03012	2.01967
H	3.55639	-0.96206	-0.040186
H	6.96648	1.22229	-1.2297
H	7.4254	0.352035	1.13686
