18
  This energy is -1.6884 and Call times are: 177444
C	-1.04499	0.208988	0.38823
C	-0.444458	-1.00789	0.525826
C	0.842887	-0.879274	-0.0794148
C	0.915391	0.404853	-0.533435
O	-0.228826	1.08384	-0.256383
H	-2.03666	0.574504	0.701667
H	-0.865755	-1.906	1.00542
H	1.61817	-1.65783	-0.162391
H	1.71494	0.949333	-1.06213
C	5.32391	0.732733	0.912601
C	6.32249	0.267487	0.0834198
N	5.82314	-0.561236	-0.865465
C	4.51974	-0.609923	-0.625858
N	4.16908	0.15347	0.436148
H	5.35241	1.41237	1.7791
H	7.3943	0.514939	0.152844
H	3.77636	-1.18883	-1.19724
H	3.20178	0.279978	0.82291
