18
  This energy is -0.9642 and Call times are: 142298
C	0.77024	0.663297	-0.503158
C	0.918394	-0.689612	-0.413371
C	-0.238447	-1.16468	0.27666
C	-0.991407	-0.0601478	0.547627
O	-0.390507	1.06496	0.078516
H	1.41112	1.44088	-0.950253
H	1.75808	-1.29255	-0.794792
H	-0.474034	-2.2092	0.536619
H	-1.96016	0.0564168	1.06064
C	4.6148	0.76965	-0.0957081
C	5.04352	-0.122047	-1.05603
N	6.08914	-0.858144	-0.607313
C	6.30827	-0.424748	0.626695
N	5.44541	0.55659	0.981734
H	3.80446	1.51586	-0.102557
H	4.61709	-0.247454	-2.06464
H	7.08753	-0.791345	1.31414
H	5.41496	1.05935	1.90236
