18
  This energy is -1.0422 and Call times are: 107192
C	0.0255221	-0.0505501	-1.13278
C	-1.04975	0.433425	-0.44727
C	-0.70785	0.335561	0.936075
C	0.546174	-0.199579	0.973788
O	1.00943	-0.441644	-0.28073
H	0.211419	-0.167869	-2.21303
H	-1.98943	0.820511	-0.873034
H	-1.32973	0.631682	1.79612
H	1.2078	-0.453067	1.81833
C	4.21615	0.612282	0.205524
C	5.4932	0.937644	0.611014
N	6.38842	0.00703155	0.199845
C	5.66947	-0.892237	-0.45822
N	4.35391	-0.572377	-0.4828
H	3.25126	1.1229	0.353152
H	5.78467	1.8272	1.19289
H	6.05589	-1.80388	-0.941758
H	3.58532	-1.12209	-0.939241
