18
  This energy is -1.3369 and Call times are: 18288
C	-0.675167	0.741375	0.530013
C	-0.304752	0.893405	-0.773848
C	0.533193	-0.223401	-1.07503
C	0.600862	-0.959308	0.0713731
O	-0.131198	-0.384797	1.06185
H	-1.3132	1.3568	1.18531
H	-0.592703	1.71007	-1.4552
H	1.0241	-0.444799	-2.03632
H	1.12874	-1.89781	0.307608
C	5.17324	-0.968904	0.343094
C	4.16661	-0.891871	-0.596003
N	3.73256	0.383411	-0.743549
C	4.46713	1.09482	0.100803
N	5.35056	0.325052	0.779467
H	5.7565	-1.82442	0.719192
H	3.74574	-1.73363	-1.16973
H	4.3993	2.18279	0.261903
H	6.03936	0.651696	1.50066
