18
  This energy is -0.6809 and Call times are: 184698
C	0.772667	-0.126248	0.820638
C	0.0781349	-1.17983	0.302977
C	-0.785554	-0.627889	-0.691772
C	-0.542565	0.714245	-0.694174
O	0.406285	1.03821	0.223293
H	1.5441	-0.0743894	1.60643
H	0.165276	-2.23937	0.592571
H	-1.5012	-1.17441	-1.32679
H	-0.972874	1.53407	-1.29248
C	6.13309	-0.908695	-0.3982
C	6.18351	0.394404	-0.846012
N	5.31664	1.18002	-0.162022
C	4.73066	0.367387	0.706815
N	5.18876	-0.902715	0.603991
H	6.684	-1.8098	-0.71133
H	6.82986	0.781788	-1.65039
H	3.9594	0.650231	1.44125
H	4.88285	-1.72604	1.17829
