18
  This energy is -1.0555 and Call times are: 106871
C	0.0585379	-0.797378	0.804464
C	0.863361	0.303814	0.807584
C	0.4961	1.05979	-0.347288
C	-0.500731	0.353836	-0.954185
O	-0.780766	-0.783147	-0.264357
H	-0.0137251	-1.65208	1.49693
H	1.63795	0.558225	1.54878
H	0.929327	2.01688	-0.679535
H	-1.084	0.551005	-1.86861
C	5.17635	-0.964556	-0.25648
C	6.52798	-0.77642	-0.453536
N	6.91468	0.455977	-0.0434484
C	5.80716	1.0302	0.406304
N	4.73181	0.214253	0.299379
H	4.52122	-1.82517	-0.465497
H	7.23108	-1.50784	-0.884263
H	5.72727	2.04651	0.824595
H	3.74704	0.437145	0.585418
