18
  This energy is -0.714 and Call times are: 137330
C	-0.668976	0.80157	0.443122
C	-1.15531	-0.393881	0.00181627
C	-0.024661	-1.12269	-0.478372
C	1.05279	-0.308273	-0.288113
O	0.677681	0.870998	0.273696
H	-1.17108	1.67425	0.892088
H	-2.20495	-0.72887	0.0132826
H	-0.0233713	-2.13511	-0.913238
H	2.12387	-0.449661	-0.507282
C	5.41223	-0.74841	0.821345
C	4.82421	0.439003	0.43999
N	5.54095	1.04798	-0.535688
C	6.5697	0.241421	-0.758768
N	6.53723	-0.855493	0.0345263
H	5.11949	-1.49972	1.57192
H	3.89563	0.867214	0.85137
H	7.37593	0.405964	-1.49167
H	7.23594	-1.63837	0.0477
