18
  This energy is -0.569 and Call times are: 46361
C	-0.593854	-0.962368	0.0871027
C	0.53343	-0.866098	-0.674697
C	0.988328	0.480256	-0.53146
C	0.0988702	1.08787	0.305225
O	-0.873975	0.221597	0.69272
H	-1.27722	-1.806	0.278258
H	0.998022	-1.66321	-1.27707
H	1.87575	0.934567	-1.0007
H	0.0484463	2.11756	0.69568
C	5.53937	-0.799925	-0.555674
C	5.1001	0.354047	0.057955
N	6.13362	1.04334	0.599461
C	7.20995	0.31974	0.322819
N	6.90412	-0.801385	-0.372258
H	4.9955	-1.59372	-1.092
H	4.05596	0.701615	0.119659
H	8.24645	0.564621	0.605568
H	7.57819	-1.53245	-0.707563
