18
  This energy is -1.3329 and Call times are: 15806
C	0.585633	-0.548166	-0.801841
C	-0.743542	-0.768146	-0.589054
C	-1.11558	0.095476	0.486055
C	0.0190859	0.766966	0.835344
O	1.06773	0.386328	0.0591547
H	1.2927	-0.986808	-1.52496
H	-1.39651	-1.46833	-1.13446
H	-2.11436	0.198022	0.939953
H	0.208493	1.52997	1.60813
C	4.07805	0.430319	1.07269
C	4.27217	-0.8925	0.735629
N	4.50546	-1.02922	-0.5923
C	4.45625	0.204098	-1.07721
N	4.20132	1.11987	-0.112859
H	3.86791	0.913664	2.04003
H	4.24808	-1.7507	1.42683
H	4.59973	0.493023	-2.13085
H	4.11418	2.15747	-0.243416
