18
  This energy is -0.528 and Call times are: 193110
C	0.00485342	1.00487	0.52595
C	-1.13835	0.285789	0.335208
C	-0.742894	-0.902281	-0.351974
C	0.607061	-0.804338	-0.520496
O	1.08044	0.354063	0.00962941
H	0.183302	1.98004	1.00807
H	-2.15784	0.56408	0.647124
H	-1.39481	-1.72829	-0.678788
H	1.33575	-1.48224	-0.994527
C	6.16678	-0.792888	-0.0715432
C	4.87918	-0.929454	-0.54544
N	4.14468	0.18071	-0.291361
C	4.97346	1.00286	0.337767
N	6.20484	0.46183	0.494514
H	7.02989	-1.47697	-0.0962356
H	4.46701	-1.80914	-1.06613
H	4.7304	2.01279	0.705466
H	7.03113	0.91233	0.958792
