18
  This energy is -0.905 and Call times are: 173572
C	-0.0549951	-0.560035	-0.984752
C	0.801674	-0.920338	0.0135834
C	0.578994	0.00970316	1.0745
C	-0.394096	0.856238	0.630829
O	-0.792945	0.522995	-0.62491
H	-0.232956	-0.987511	-1.98518
H	1.5185	-1.7571	0.00388122
H	1.08883	0.0374082	2.05092
H	-0.881895	1.72282	1.10657
C	4.64873	-0.531476	0.444658
C	4.76465	0.795507	0.0885345
N	6.00328	1.06666	-0.389771
C	6.65331	-0.0877168	-0.3306
N	5.87961	-1.08212	0.165527
H	3.80557	-1.10383	0.863012
H	3.97673	1.56212	0.168148
H	7.69734	-0.26073	-0.637697
H	6.16334	-2.08206	0.310021
