18
  This energy is -1.6275 and Call times are: 145973
C	-0.0636888	-1.07755	0.348175
C	1.03522	-0.579156	-0.287732
C	0.739736	0.790845	-0.563245
C	-0.513652	1.0087	-0.0713773
O	-1.01939	-0.121577	0.488733
H	-0.286064	-2.0817	0.74502
H	1.96102	-1.12182	-0.537716
H	1.39089	1.52158	-1.06932
H	-1.14716	1.91077	-0.0578802
C	5.13787	-0.524056	-1.05195
C	6.10992	-0.708608	-0.0916401
N	5.86923	0.0565899	1.00063
C	4.7521	0.713352	0.719002
N	4.27202	0.397751	-0.507177
H	5.00541	-0.96863	-2.05112
H	6.98061	-1.38018	-0.167346
H	4.24238	1.43735	1.37493
H	3.40536	0.782045	-0.957141
