18
  This energy is -0.7439 and Call times are: 112820
C	0.050262	0.672414	-0.911995
C	1.16509	0.136273	-0.337465
C	0.700574	-0.639386	0.768291
C	-0.657108	-0.508766	0.771859
O	-1.07149	0.288947	-0.247432
H	-0.0763859	1.33334	-1.78514
H	2.20975	0.273262	-0.659976
H	1.31347	-1.22336	1.47357
H	-1.43009	-0.927091	1.43726
C	5.22579	-0.658053	0.0544672
C	5.35184	0.58744	-0.523462
N	6.6179	1.05572	-0.403891
C	7.27479	0.104358	0.245747
N	6.47916	-0.949836	0.544475
H	4.36169	-1.33482	0.148581
H	4.55193	1.15655	-1.02457
H	8.3396	0.128335	0.528283
H	6.76299	-1.82308	1.05256
