18
  This energy is -0.9995 and Call times are: 97157
C	-0.401535	-0.345765	-1.0028
C	-0.846705	-0.860748	0.179139
C	-0.114113	-0.183568	1.20132
C	0.714062	0.685451	0.553781
O	0.551817	0.599772	-0.792824
H	-0.679546	-0.565095	-2.04677
H	-1.614	-1.63938	0.317321
H	-0.200465	-0.332766	2.28961
H	1.45538	1.40835	0.932083
C	4.10259	-0.254787	-0.340395
C	4.63679	-0.417591	0.920268
N	5.93218	-0.0211972	0.956966
C	6.20058	0.38597	-0.27624
N	5.12967	0.265075	-1.09607
H	3.09775	-0.46507	-0.739925
H	4.11072	-0.81397	1.804
H	7.16504	0.781756	-0.63318
H	5.08943	0.518983	-2.1135
