18
  This energy is -1.5913 and Call times are: 52195
C	0.0656131	0.716339	0.8769
C	1.03847	-0.201364	0.609038
C	0.601909	-0.905708	-0.554334
C	-0.59918	-0.356241	-0.894694
O	-0.9421	0.635814	-0.0314178
H	-0.0261693	1.47327	1.67307
H	1.97005	-0.365815	1.17401
H	1.12772	-1.72484	-1.07071
H	-1.29839	-0.579337	-1.71724
C	4.91682	0.719965	0.905391
C	5.37218	-0.571943	0.748023
N	4.92922	-1.10788	-0.415191
C	4.20182	-0.152087	-0.977312
N	4.1636	0.969773	-0.219976
H	5.07034	1.45473	1.71167
H	6.0124	-1.12694	1.45297
H	3.67518	-0.220723	-1.9428
H	3.65676	1.86022	-0.446843
