18
  This energy is -0.9574 and Call times are: 86153
C	-0.845131	-0.492859	0.573797
C	0.172346	0.168382	1.19659
C	1.02628	0.642484	0.154414
C	0.455252	0.229108	-1.01324
O	-0.688397	-0.465696	-0.775909
H	-1.72821	-1.01819	0.973113
H	0.307946	0.308252	2.28109
H	1.95561	1.22303	0.270219
H	0.760346	0.363441	-2.06401
C	5.19827	0.130279	-1.13008
C	6.10471	-0.771652	-0.614297
N	6.2076	-0.645839	0.731101
C	5.36819	0.33043	1.04876
N	4.73547	0.831001	-0.0387534
H	4.86105	0.316843	-2.16208
H	6.6863	-1.51091	-1.18884
H	5.17824	0.718365	2.06249
H	4.02728	1.60536	-0.048693
