18
  This energy is -0.7611 and Call times are: 201999
C	-0.319954	1.07917	0.139369
C	0.960115	0.732136	-0.17901
C	0.968401	-0.693465	-0.266822
C	-0.307336	-1.09175	0.00564709
O	-1.10758	-0.0222094	0.25605
H	-0.790685	2.06164	0.307951
H	1.81296	1.41186	-0.336249
H	1.82895	-1.33883	-0.505683
H	-0.766538	-2.09286	0.0520464
C	5.07129	-0.319992	-0.473769
C	5.35553	-0.176574	0.867792
N	6.64202	0.205264	1.0566
C	7.15394	0.298374	-0.163192
N	6.2465	-0.00839245	-1.12029
H	4.14673	-0.612	-0.996704
H	4.65538	-0.341775	1.70287
H	8.18776	0.586999	-0.412488
H	6.4075	-0.00879206	-2.15727
