18
  This energy is -1.1584 and Call times are: 87879
C	0.875366	0.402001	-0.598775
C	0.346171	1.07503	0.462998
C	-0.723009	0.261561	0.948015
C	-0.752791	-0.836754	0.139814
O	0.216425	-0.76763	-0.810372
H	1.71005	0.645678	-1.2764
H	0.675668	2.04683	0.864397
H	-1.38731	0.477255	1.80023
H	-1.40576	-1.72494	0.137044
C	5.90278	0.613965	-0.0507661
C	4.87725	0.777725	0.856217
N	3.87275	-0.101264	0.621956
C	4.27359	-0.807637	-0.426369
N	5.49149	-0.414528	-0.868835
H	6.86408	1.13902	-0.168036
H	4.84414	1.51437	1.67543
H	3.71431	-1.62442	-0.910404
H	6.02148	-0.81661	-1.68044
