18
  This energy is -0.9859 and Call times are: 139348
C	0.852867	-0.692422	0.282081
C	0.865471	0.0546932	-0.858986
C	-0.36216	0.784783	-0.861884
C	-1.01658	0.419365	0.277667
O	-0.289062	-0.482127	0.98833
H	1.58558	-1.40274	0.699001
H	1.65959	0.0883037	-1.6221
H	-0.709113	1.49701	-1.62769
H	-1.99199	0.72489	0.690554
C	6.16361	0.763525	0.467991
C	4.82708	0.63303	0.780717
N	4.24742	-0.348659	0.0480607
C	5.22064	-0.825363	-0.71628
N	6.3955	-0.18768	-0.500319
H	6.94022	1.44329	0.853135
H	4.27066	1.22963	1.52187
H	5.12765	-1.6409	-1.45146
H	7.30901	-0.381032	-0.979259
