18
  This energy is -1.2204 and Call times are: 111917
C	0.167454	0.0893908	1.1182
C	-0.690656	0.904828	0.440644
C	-0.628759	0.489581	-0.924587
C	0.261713	-0.542951	-0.960786
O	0.757766	-0.800837	0.277938
H	0.442504	0.0420858	2.18467
H	-1.30554	1.71725	0.86015
H	-1.18611	0.916032	-1.77405
H	0.622887	-1.16803	-1.7939
C	4.81804	-0.238483	1.02949
C	4.09538	-1.11207	0.244789
N	3.64076	-0.500561	-0.875877
C	4.07972	0.747636	-0.786745
N	4.79479	0.955667	0.344178
H	5.33013	-0.377447	1.99489
H	3.89387	-2.17263	0.467176
H	3.90635	1.55023	-1.5216
H	5.2456	1.85524	0.64218
