18
  This energy is -1.253 and Call times are: 97769
C	0.654991	0.904285	-0.199137
C	-0.640443	0.833751	-0.620145
C	-1.12384	-0.438359	-0.186341
C	-0.0811227	-1.03289	0.461463
O	1.01326	-0.227081	0.463181
H	1.41666	1.69396	-0.306491
H	-1.19953	1.6006	-1.18002
H	-2.13223	-0.853924	-0.342997
H	0.00795037	-2.01323	0.957706
C	5.61391	0.915141	0.613426
C	6.35077	-0.106752	0.0531436
N	5.54931	-0.994789	-0.583695
C	4.31992	-0.525595	-0.419116
N	4.30593	0.624163	0.296041
H	5.91761	1.79933	1.1961
H	7.44634	-0.219181	0.0970084
H	3.39391	-0.98448	-0.80143
H	3.45991	1.18675	0.5587
