18
  This energy is -2.2981 and Call times are: 31247
C	-0.248476	-0.369955	-1.04297
C	-0.266619	0.953561	-0.713809
C	0.096135	1.01827	0.66617
C	0.30393	-0.271423	1.05847
O	0.0979128	-1.13246	0.02736
H	-0.459741	-0.890378	-1.99154
H	-0.510943	1.79943	-1.37631
H	0.188989	1.92427	1.28635
H	0.597402	-0.701817	2.03001
C	4.01188	-0.858875	0.741725
C	3.51228	-1.00866	-0.53464
N	3.2601	0.19451	-1.10498
C	3.60195	1.08732	-0.185929
N	4.06119	0.502089	0.945527
H	4.32536	-1.59974	1.49432
H	3.32927	-1.96334	-1.05422
H	3.53624	2.18241	-0.289348
H	4.39182	0.991787	1.81279
