18
  This energy is -1.7184 and Call times are: 45903
C	-0.525114	0.186028	-0.987952
C	-0.220617	1.19435	-0.121387
C	0.425323	0.572609	0.990509
C	0.458529	-0.760769	0.705252
O	-0.117566	-1.0148	-0.499153
H	-1.02385	0.19256	-1.97105
H	-0.429881	2.26824	-0.25205
H	0.816456	1.06859	1.89335
H	0.858555	-1.61933	1.26925
C	3.82889	-1.01385	0.57264
C	3.91546	0.245459	1.12742
N	4.11634	1.18687	0.17354
C	4.15426	0.514148	-0.968663
N	3.98582	-0.816276	-0.781067
H	3.67195	-2.00362	1.0301
H	3.83656	0.491627	2.19888
H	4.30268	0.946318	-1.97138
H	3.97654	-1.55629	-1.52508
