18
  This energy is -0.9052 and Call times are: 103166
C	0.877944	-0.681084	0.227465
C	0.93959	0.671018	0.395972
C	-0.341269	1.17189	0.0104218
C	-1.07256	0.0816415	-0.359653
O	-0.343628	-1.05842	-0.2334
H	1.62478	-1.47386	0.397711
H	1.80066	1.25691	0.755685
H	-0.670753	2.22333	0.0117691
H	-2.10791	-0.0142302	-0.725862
C	6.38273	-0.426287	0.651281
C	5.13279	-0.0506676	1.09593
N	4.36432	0.39647	0.07318
C	5.13458	0.298615	-1.00187
N	6.3613	-0.19225	-0.705537
H	7.2568	-0.830102	1.18651
H	4.7717	-0.0942846	2.1364
H	4.85028	0.572526	-2.03065
H	7.14647	-0.362173	-1.38073
