18
  This energy is -0.9992 and Call times are: 45324
C	0.0684073	-0.992212	0.545194
C	-0.605612	-0.850628	-0.632102
C	-0.466462	0.522578	-0.999607
C	0.280307	1.09892	-0.0144464
O	0.615714	0.188406	0.937122
H	0.230078	-1.86846	1.19427
H	-1.14653	-1.63455	-1.18615
H	-0.878037	1.01504	-1.89525
H	0.635592	2.13335	0.123287
C	5.112	0.396781	-0.92364
C	3.90691	-0.272476	-0.955241
N	3.48699	-0.582084	0.295487
C	4.42799	-0.106707	1.09995
N	5.42924	0.492533	0.412915
H	5.74516	0.798289	-1.73076
H	3.33292	-0.537487	-1.8581
H	4.43371	-0.170135	2.20003
H	6.28428	0.944055	0.8207
