18
  This energy is -0.974 and Call times are: 130080
C	0.131077	-0.314552	-1.08179
C	-1.09386	-0.0607731	-0.5382
C	-0.850665	0.301029	0.821973
C	0.501421	0.236404	0.98949
O	1.11678	-0.137983	-0.162976
H	0.430711	-0.624184	-2.09648
H	-2.0707	-0.122192	-1.04428
H	-1.60145	0.575902	1.58017
H	1.13944	0.430184	1.86735
C	4.98222	-0.430889	-1.0582
C	5.31373	0.809022	-0.554344
N	4.82425	0.974148	0.698513
C	4.19148	-0.159014	0.970863
N	4.25807	-1.03829	-0.0567715
H	5.20302	-0.90808	-2.02622
H	5.89734	1.58742	-1.07238
H	3.66249	-0.397593	1.9076
H	3.83807	-1.99956	-0.0852405
