18
  This energy is -1.1871 and Call times are: 5099
C	0.987827	-0.00831159	0.557252
C	-0.0595788	0.777541	0.939025
C	-1.10764	0.512834	0.0054186
C	-0.608166	-0.41141	-0.864452
O	0.670355	-0.741088	-0.542413
H	1.99838	-0.135265	0.979057
H	-0.0910055	1.47378	1.79246
H	-2.11323	0.963033	-0.00892462
H	-1.05588	-0.906677	-1.74167
C	5.05289	-0.0669491	1.12075
C	4.98515	-1.10114	0.211347
N	4.53391	-0.666402	-0.990275
C	4.32251	0.632543	-0.826946
N	4.62054	1.04231	0.428785
H	5.36766	-0.0426619	2.17615
H	5.2538	-2.15319	0.400728
H	3.95003	1.33059	-1.59391
H	4.53799	2.01893	0.803812
