18
  This energy is -1.2257 and Call times are: 45839
C	0.855089	0.741887	0.069474
C	0.819307	-0.402899	0.810121
C	-0.394478	-1.06395	0.449766
C	-0.993274	-0.264765	-0.479278
O	-0.243988	0.842439	-0.723578
H	1.59709	1.55544	0.0164142
H	1.57213	-0.747291	1.53727
H	-0.76986	-2.02278	0.841968
H	-1.94013	-0.370999	-1.03374
C	6.69015	-0.431301	-1.05588
C	6.87055	0.861626	-0.6121
N	6.42081	1.00963	0.657679
C	5.96314	-0.186932	1.00033
N	6.10304	-1.09013	0.00120589
H	6.93002	-0.913107	-2.01706
H	7.31716	1.69032	-1.18538
H	5.51542	-0.456797	1.97036
H	5.81848	-2.0999	0.0269203
