18
  This energy is -0.7695 and Call times are: 73781
C	0.00212805	-0.678349	0.908977
C	-0.589968	0.550369	0.915926
C	-0.384596	1.09075	-0.390188
C	0.314869	0.144542	-1.07998
O	0.559711	-0.942525	-0.301942
H	0.0942188	-1.44996	1.69089
H	-1.11834	1.02826	1.75648
H	-0.722077	2.07091	-0.763651
H	0.692715	0.124809	-2.1154
C	5.31464	0.930288	-0.711698
C	4.1637	0.210808	-0.469166
N	4.39354	-0.798405	0.405576
C	5.68217	-0.705366	0.704573
N	6.28177	0.321209	0.0563334
H	5.50747	1.80349	-1.35502
H	3.17158	0.401829	-0.909684
H	6.23762	-1.36318	1.39231
H	7.29108	0.600035	0.125605
