18
  This energy is -0.8051 and Call times are: 16963
C	-0.549748	-0.0867099	0.988261
C	-0.630861	-1.04473	0.0207979
C	0.186148	-0.58314	-1.05602
C	0.6944	0.61621	-0.651532
O	0.255408	0.93492	0.59455
H	-1.01092	-0.0153602	1.987
H	-1.20812	-1.9824	0.0613718
H	0.368295	-1.09176	-2.01635
H	1.37001	1.32982	-1.15108
C	6.2057	-0.704921	-0.855984
C	5.97219	0.647609	-0.724529
N	6.57949	1.14313	0.380986
C	7.18743	0.10197	0.933262
N	6.99213	-1.03547	0.224969
H	5.8788	-1.43136	-1.61688
H	5.3764	1.27478	-1.40757
H	7.78888	0.116671	1.85645
H	7.36814	-1.98773	0.455357
