18
  This energy is -1.4402 and Call times are: 3092
C	0.0594875	1.05103	-0.422128
C	-0.682284	0.06878	-1.00977
C	-0.506491	-1.09286	-0.197495
C	0.327187	-0.717928	0.814818
O	0.682737	0.588151	0.693359
H	0.223802	2.1061	-0.696159
H	-1.29207	0.153724	-1.92358
H	-0.952877	-2.08766	-0.356294
H	0.736101	-1.27918	1.671
C	3.62819	0.0471274	-0.662155
C	4.3435	1.11598	-0.165138
N	5.40986	0.696303	0.558225
C	5.35629	-0.627873	0.510146
N	4.30005	-1.06812	-0.213823
H	2.71891	0.00268326	-1.28247
H	4.10925	2.18245	-0.315531
H	6.06522	-1.32349	0.987406
H	4.04208	-2.06844	-0.398434
