18
  This energy is -0.817 and Call times are: 193463
C	-1.1217	0.0669643	-0.153993
C	-0.273578	1.0724	-0.514787
C	1.03663	0.622435	-0.166925
C	0.873498	-0.618244	0.375734
O	-0.438235	-0.973376	0.39152
H	-2.21718	-0.028621	-0.23164
H	-0.543525	2.03441	-0.979288
H	1.98451	1.16621	-0.308091
H	1.60104	-1.33991	0.782103
C	6.53281	0.294505	-0.872557
C	6.64936	-0.785204	-0.0229756
N	5.62654	-0.820623	0.865339
C	4.87831	0.233106	0.567975
N	5.38265	0.93751	-0.47272
H	7.16582	0.639292	-1.70559
H	7.45314	-1.53928	-0.0350623
H	3.9507	0.535335	1.08026
H	4.97516	1.80768	-0.894627
