18
  This energy is -1.3398 and Call times are: 174116
C	-0.305201	0.135066	-1.08398
C	-0.0773594	1.19176	-0.252201
C	0.280162	0.626082	1.00966
C	0.239235	-0.726357	0.837599
O	-0.116473	-1.04402	-0.435025
H	-0.602825	0.0903269	-2.14448
H	-0.153427	2.2622	-0.502164
H	0.536408	1.17072	1.93259
H	0.439067	-1.55819	1.53285
C	5.60467	-0.0201781	0.405456
C	4.4901	-0.558047	1.01339
N	3.37848	-0.351606	0.266268
C	3.80182	0.31181	-0.801107
N	5.13672	0.536037	-0.764088
H	6.66243	0.0052881	0.712099
H	4.46813	-1.09137	1.97772
H	3.17662	0.657716	-1.63998
H	5.70663	1.03796	-1.48833
