18
  This energy is -0.7087 and Call times are: 85513
C	-0.329265	1.03368	-0.33089
C	0.0188035	0.755783	0.958294
C	0.368516	-0.628915	0.979056
C	0.203281	-1.07495	-0.299273
O	-0.222445	-0.072863	-1.11266
H	-0.665944	1.96643	-0.812431
H	0.0283328	1.45567	1.80927
H	0.703101	-1.21609	1.84933
H	0.353193	-2.06887	-0.751925
C	4.64303	-0.754134	-0.286317
C	4.90096	0.466802	-0.872773
N	5.96563	1.07228	-0.292781
C	6.36666	0.230173	0.649902
N	5.60129	-0.886015	0.693751
H	3.87112	-1.51316	-0.490246
H	4.33792	0.921656	-1.704
H	7.21521	0.38133	1.33644
H	5.716	-1.69731	1.34941
