18
  This energy is -0.9439 and Call times are: 168379
C	-0.208502	-1.01638	0.458149
C	-1.20537	-0.19002	0.0294742
C	-0.555425	0.9768	-0.476712
C	0.781236	0.760463	-0.312675
O	1.01126	-0.451863	0.256857
H	-0.23614	-2.01783	0.918132
H	-2.28962	-0.382786	0.0660482
H	-1.03556	1.86858	-0.910633
H	1.65793	1.38253	-0.557
C	5.25099	-1.11966	-0.09094
C	4.61523	-0.370579	-1.05833
N	4.35594	0.883033	-0.613655
C	4.82904	0.911554	0.624888
N	5.3786	-0.271945	0.986691
H	5.60967	-2.16123	-0.0930422
H	4.33899	-0.712215	-2.06918
H	4.79914	1.7733	1.31099
H	5.81815	-0.500275	1.91185
