18
  This energy is -1.394 and Call times are: 47332
C	-0.455251	-1.03825	-0.0344689
C	0.543495	-0.650234	-0.878463
C	0.844854	0.702252	-0.531933
C	0.00366144	1.02133	0.493229
O	-0.797356	-0.0298745	0.810018
H	-0.999639	-1.99172	0.0644973
H	1.02018	-1.25569	-1.66605
H	1.60165	1.35392	-0.997421
H	-0.121415	1.94971	1.07436
C	4.42339	-0.758579	0.856234
C	4.25441	0.609698	0.876471
N	4.68217	1.17202	-0.27996
C	5.11487	0.156451	-1.01482
N	4.98015	-1.02873	-0.373895
H	4.19447	-1.53332	1.60518
H	3.83151	1.20123	1.70478
H	5.53989	0.224525	-2.02919
H	5.24868	-1.97344	-0.743608
