18
  This energy is -0.7722 and Call times are: 156304
C	0.0492109	1.01283	-0.508098
C	1.10043	0.143743	-0.508205
C	0.659814	-1.00294	0.220554
C	-0.621768	-0.733353	0.601662
O	-1.01094	0.493454	0.165204
H	-0.0686464	2.01773	-0.945743
H	2.08716	0.294981	-0.974675
H	1.23699	-1.91754	0.43146
H	-1.3527	-1.32395	1.17801
C	5.0834	-0.439256	0.398325
C	5.2506	0.438969	-0.651392
N	6.55986	0.735931	-0.836212
C	7.20244	0.0445621	0.095305
N	6.35631	-0.679986	0.865158
H	4.17884	-0.894764	0.831712
H	4.45	0.863647	-1.27871
H	8.29222	0.032496	0.258039
H	6.61975	-1.30588	1.66523
