18
  This energy is -1.8939 and Call times are: 95895
C	-0.806506	-0.210948	-0.769058
C	-0.199206	-1.20291	-0.0566212
C	0.743722	-0.551187	0.795587
C	0.629391	0.781505	0.528693
O	-0.312726	1.00741	-0.424402
H	-1.59378	-0.241439	-1.5401
H	-0.395539	-2.28502	-0.124414
H	1.42383	-1.02752	1.51992
H	1.1541	1.65783	0.94341
C	3.95719	0.295734	-1.13015
C	4.17436	-0.96948	-0.626945
N	4.2937	-0.944693	0.722741
C	4.15111	0.331045	1.05558
N	3.94598	1.119	-0.0263843
H	3.81458	0.65648	-2.1612
H	4.24708	-1.89976	-1.21358
H	4.18814	0.742989	2.07693
H	3.80523	2.15892	-0.0247509
