18
  This energy is -2.0712 and Call times are: 126342
C	0.319562	-0.332572	-1.03618
C	-0.0788335	0.944324	-0.769367
C	-0.396915	0.971824	0.62282
C	-0.164815	-0.290695	1.08385
O	0.273232	-1.10048	0.0841651
H	0.655555	-0.813689	-1.9694
H	-0.142347	1.78275	-1.48148
H	-0.756084	1.83581	1.20473
H	-0.271401	-0.733548	2.08773
C	4.11636	-0.0863273	-1.05405
C	3.58914	1.05187	-0.481597
N	3.07161	0.788261	0.742815
C	3.27699	-0.508539	0.929248
N	3.90374	-1.08097	-0.125787
H	4.61129	-0.25332	-2.02394
H	3.57291	2.05855	-0.930123
H	2.98848	-1.08949	1.82003
H	4.17585	-2.0902	-0.218915
