18
  This energy is -1.0857 and Call times are: 197524
C	-0.526327	-0.839816	0.551444
C	0.827543	-0.678214	0.587441
C	1.10583	0.469376	-0.216119
C	-0.102544	0.907745	-0.672224
O	-1.11038	0.11994	-0.213257
H	-1.18607	-1.58784	1.02096
H	1.55707	-1.30433	1.12584
H	2.09403	0.909942	-0.42462
H	-0.375075	1.75647	-1.32079
C	4.79139	1.01537	0.432618
C	5.08036	0.734327	-0.885963
N	5.53265	-0.535319	-1.02718
C	5.5243	-1.04001	0.199132
N	5.08545	-0.144115	1.11476
H	4.41003	1.92798	0.917637
H	4.9706	1.42493	-1.73794
H	5.82944	-2.06013	0.482827
H	4.98781	-0.302577	2.14753
