18
  This energy is -1.3171 and Call times are: 134366
C	-0.560485	0.783063	-0.599224
C	0.24943	-0.144287	-1.18611
C	0.768188	-0.940931	-0.120104
C	0.229484	-0.430073	1.0241
O	-0.584438	0.623261	0.750184
H	-1.16673	1.59894	-1.02592
H	0.460393	-0.256132	-2.26179
H	1.46133	-1.79325	-0.204937
H	0.345036	-0.722652	2.08065
C	4.84654	-0.798625	-0.79196
C	4.20679	-1.04343	0.404673
N	3.9548	0.110529	1.06905
C	4.4364	1.06758	0.287546
N	4.98436	0.570394	-0.846532
H	5.20164	-1.47905	-1.58219
H	3.92252	-2.03202	0.800554
H	4.4141	2.14908	0.497542
H	5.42941	1.12259	-1.62001
