18
  This energy is -1.0924 and Call times are: 121671
C	-0.965889	0.488492	-0.338872
C	-0.0630693	1.12998	0.457237
C	1.00442	0.203565	0.663015
C	0.659695	-0.922254	-0.0255126
O	-0.540637	-0.765878	-0.643383
H	-1.9355	0.81148	-0.752125
H	-0.141009	2.15292	0.859249
H	1.91871	0.365413	1.2563
H	1.17539	-1.88828	-0.152447
C	4.31707	0.449533	-0.63518
C	4.731	0.861133	0.613978
N	5.7785	0.120291	1.05033
C	6.01353	-0.747606	0.0755743
N	5.15898	-0.589689	-0.96289
H	3.5099	0.810565	-1.29219
H	4.29258	1.67938	1.2082
H	6.79899	-1.52042	0.0705816
H	5.14117	-1.1518	-1.84887
