18
  This energy is -0.813 and Call times are: 190921
C	-0.780964	-0.456775	0.683998
C	0.363122	-1.11473	0.33971
C	1.08046	-0.228012	-0.520097
C	0.311408	0.89353	-0.625323
O	-0.829079	0.771164	0.103599
H	-1.62807	-0.749931	1.32566
H	0.671019	-2.12332	0.65917
H	2.05512	-0.412395	-0.999822
H	0.462413	1.83416	-1.18
C	5.90931	0.324585	1.05461
C	6.00473	1.0336	-0.12409
N	5.42333	0.361359	-1.14711
C	4.96895	-0.760432	-0.605125
N	5.23714	-0.829815	0.720336
H	6.26045	0.552227	2.07364
H	6.48267	2.01817	-0.254675
H	4.43266	-1.56521	-1.1333
H	4.98171	-1.61366	1.36965
