18
  This energy is -1.5013 and Call times are: 38857
C	-0.690127	-0.899295	0.0373451
C	0.439011	-0.81302	0.797594
C	1.03133	0.446392	0.476418
C	0.211867	1.01855	-0.451744
O	-0.844448	0.210562	-0.73169
H	-1.45671	-1.68707	-0.0463775
H	0.816898	-1.56119	1.51281
H	1.95978	0.868832	0.893102
H	0.269444	1.98312	-0.982352
C	6.34136	0.799721	0.793102
C	6.18948	0.99237	-0.563719
N	5.78177	-0.145668	-1.17621
C	5.6811	-1.04092	-0.203068
N	6.00786	-0.519679	1.00322
H	6.65279	1.48529	1.59718
H	6.36678	1.93213	-1.11168
H	5.37253	-2.09245	-0.318416
H	6.00726	-1.02445	1.92325
