18
  This energy is -1.3985 and Call times are: 194649
C	0.709111	0.176085	0.8675
C	-0.63076	0.414131	0.95944
C	-1.17613	0.0777926	-0.317104
C	-0.121383	-0.336093	-1.07643
O	1.03773	-0.282521	-0.368906
H	1.52417	0.291473	1.60073
H	-1.17997	0.788969	1.83805
H	-2.23226	0.140007	-0.625031
H	-0.0651539	-0.688687	-2.11939
C	4.25149	-0.910932	0.730234
C	4.47906	-0.968117	-0.628474
N	4.60259	0.274078	-1.15592
C	4.45222	1.09875	-0.128341
N	4.23814	0.432761	1.03106
H	4.10305	-1.70486	1.47936
H	4.55633	-1.88343	-1.23763
H	4.48969	2.19929	-0.16897
H	4.09018	0.858817	1.97861
