18
  This energy is -1.4744 and Call times are: 171202
C	-0.129161	-0.627799	-0.935728
C	0.244359	-1.16729	0.260017
C	0.298122	-0.0769856	1.18114
C	-0.0472918	1.03253	0.466962
O	-0.311558	0.714612	-0.827683
H	-0.297356	-1.08633	-1.92401
H	0.460359	-2.22675	0.472129
H	0.564093	-0.123011	2.24942
H	-0.140682	2.09105	0.760322
C	4.50602	-0.136492	-1.16894
C	5.19556	-0.891686	-0.244082
N	4.95755	-0.456602	1.01709
C	4.12354	0.564622	0.875173
N	3.82102	0.797346	-0.424024
H	4.45598	-0.19555	-2.26783
H	5.86052	-1.74269	-0.464215
H	3.70332	1.1769	1.68928
H	3.1857	1.54643	-0.793475
