18
  This energy is -0.9971 and Call times are: 210838
C	-1.04836	-0.431989	0.0269769
C	-0.774233	0.786223	-0.521827
C	0.632844	0.976966	-0.367333
C	1.09435	-0.141525	0.262241
O	0.0812027	-1.01263	0.510662
H	-1.99318	-0.989795	0.133872
H	-1.49098	1.48083	-0.988616
H	1.22397	1.84887	-0.690521
H	2.10734	-0.433931	0.5841
C	5.56723	1.13733	-0.295056
C	6.32345	0.103784	-0.806001
N	5.98102	-1.0787	-0.239453
C	5.01604	-0.779879	0.619696
N	4.73029	0.543723	0.623281
H	5.5655	2.21722	-0.512706
H	7.11	0.190134	-1.57329
H	4.48422	-1.49186	1.27122
H	4.00866	1.02589	1.21322
