18
  This energy is -0.6571 and Call times are: 18931
C	-0.0353541	0.882954	0.711015
C	-1.11565	0.494523	-0.0254944
C	-0.684673	-0.635091	-0.785984
C	0.620948	-0.837232	-0.447065
O	1.03396	0.0807306	0.466048
H	0.0988715	1.70272	1.43574
H	-2.11571	0.957064	-0.0325405
H	-1.28413	-1.22252	-1.4999
H	1.35484	-1.58921	-0.78049
C	6.30988	0.603331	-0.0350795
C	5.47658	0.447189	1.05229
N	4.39845	-0.310852	0.736821
C	4.56228	-0.623787	-0.541402
N	5.69996	-0.0962805	-1.0523
H	7.26198	1.14473	-0.153071
H	5.63398	0.867919	2.0588
H	3.8795	-1.23644	-1.15189
H	6.05061	-0.200399	-2.0359
