18
  This energy is -0.8495 and Call times are: 137362
C	0.472763	0.113726	-1.02468
C	0.537383	1.0932	-0.0776613
C	-0.163408	0.585305	1.05859
C	-0.594406	-0.659693	0.70561
O	-0.214781	-0.963996	-0.563364
H	0.870138	0.0623785	-2.05167
H	1.0292	2.07487	-0.169976
H	-0.322969	1.0949	2.0224
H	-1.17211	-1.41772	1.2596
C	6.13474	0.216702	0.800836
C	6.0735	-0.858204	-0.0605418
N	4.97309	-0.790756	-0.848622
C	4.35403	0.321761	-0.477559
N	5.01493	0.964968	0.513949
H	6.87138	0.492901	1.57195
H	6.8036	-1.6812	-0.127495
H	3.41364	0.712182	-0.898826
H	4.72881	1.86264	0.976095
