18
  This energy is -0.8147 and Call times are: 150045
C	0.436452	-1.04162	-0.104627
C	1.1059	0.0750667	-0.51112
C	0.244281	1.17588	-0.217973
C	-0.875625	0.634718	0.341779
O	-0.775434	-0.718445	0.418733
H	0.710351	-2.10906	-0.132785
H	2.10612	0.119171	-0.971242
H	0.443633	2.24319	-0.405618
H	-1.80058	1.09895	0.721507
C	6.4065	0.719512	-0.213663
C	5.64093	0.0533376	-1.14707
N	4.67902	-0.690637	-0.548946
C	4.84722	-0.486778	0.750584
N	5.87627	0.356064	1.0041
H	7.26255	1.40368	-0.326069
H	5.7654	0.0961869	-2.24138
H	4.24486	-0.929818	1.55997
H	6.20715	0.672406	1.9484
