18
  This energy is -0.7296 and Call times are: 197922
C	-1.00967	0.490513	-0.162389
C	-0.636819	-0.0326239	1.04081
C	0.680013	-0.551976	0.850172
C	0.995617	-0.30036	-0.452692
O	-0.0248068	0.335747	-1.08603
H	-1.9362	0.992774	-0.485679
H	-1.22963	-0.0509524	1.96943
H	1.31119	-1.05304	1.6016
H	1.90132	-0.520726	-1.04124
C	6.66212	0.929258	-0.288401
C	7.08268	-0.377082	-0.1552
N	6.05341	-1.18923	0.187627
C	4.99833	-0.389762	0.266806
N	5.31361	0.897393	-0.0114311
H	7.20878	1.84864	-0.551896
H	8.11035	-0.748138	-0.300323
H	3.9713	-0.694733	0.524573
H	4.65609	1.71526	-0.0154099
