18
  This energy is -0.8912 and Call times are: 50739
C	-0.955753	0.375686	-0.481454
C	-0.330014	1.0516	0.524509
C	0.820474	0.27486	0.860908
C	0.796221	-0.807145	0.0308178
O	-0.28168	-0.761813	-0.795673
H	-1.8744	0.596256	-1.04951
H	-0.646825	2.00184	0.983609
H	1.57303	0.503121	1.63269
H	1.47837	-1.66734	-0.0691744
C	5.12432	0.0284393	1.1438
C	4.4526	0.653989	0.114912
N	5.04674	0.407219	-1.07782
C	6.08311	-0.36847	-0.789964
N	6.17301	-0.625475	0.536481
H	4.93656	0.00318064	2.229
H	3.54989	1.27895	0.211828
H	6.80829	-0.776584	-1.51231
H	6.90257	-1.21126	1.01172
