18
  This energy is -1.0528 and Call times are: 163292
C	0.687752	-0.138198	0.891235
C	-0.613685	-0.546249	0.902713
C	-1.14195	-0.204405	-0.379549
C	-0.116695	0.382364	-1.0614
O	1.0083	0.431115	-0.300464
H	1.47855	-0.195036	1.65717
H	-1.14808	-1.03858	1.73104
H	-2.16736	-0.378995	-0.743071
H	-0.0609244	0.801168	-2.07961
C	6.24518	-0.0178464	1.17549
C	5.64254	0.891929	0.332703
N	5.9171	0.612536	-0.964628
C	6.68713	-0.466465	-0.926818
N	6.9139	-0.885186	0.340793
H	6.24547	-0.106482	2.27352
H	5.01456	1.74492	0.637494
H	7.1124	-0.990708	-1.79777
H	7.48948	-1.71285	0.63223
