18
  This energy is -1.8348 and Call times are: 177226
C	-0.658981	-0.861805	0.330813
C	0.232802	-0.976139	-0.69487
C	0.864005	0.300121	-0.808277
C	0.302221	1.08169	0.158116
O	-0.629918	0.388251	0.863286
H	-1.36255	-1.58671	0.77212
H	0.426683	-1.86958	-1.3099
H	1.64459	0.592952	-1.52872
H	0.476909	2.13258	0.441629
C	4.90874	-1.15174	0.14833
C	6.13017	-0.512627	0.120183
N	5.9797	0.820735	-0.0695973
C	4.66991	1.00809	-0.158846
N	3.98076	-0.150796	-0.0337182
H	4.64309	-2.21262	0.280613
H	7.1173	-0.989714	0.233413
H	4.16191	1.97328	-0.315605
H	2.93818	-0.265046	-0.0687146
