18
  This energy is -1.0945 and Call times are: 134526
C	0.684357	0.904446	0.00582027
C	-0.653467	1.00234	-0.241196
C	-1.16405	-0.329287	-0.162592
C	-0.09317	-1.12337	0.12552
O	1.04384	-0.38655	0.231903
H	1.47778	1.66859	0.0484886
H	-1.22357	1.9202	-0.457101
H	-2.20874	-0.649167	-0.305435
H	-0.0101797	-2.21206	0.277558
C	4.59152	0.661397	-0.667606
C	5.94934	0.822565	-0.490133
N	6.44788	-0.119247	0.347099
C	5.40331	-0.861865	0.687726
N	4.26081	-0.431598	0.10193
H	3.86153	1.22824	-1.26706
H	6.5782	1.60154	-0.951196
H	5.41902	-1.73262	1.36284
H	3.30516	-0.850754	0.212829
