18
  This energy is -0.8565 and Call times are: 171074
C	-0.801054	-0.443851	-0.669111
C	0.072644	-1.2179	0.0364909
C	0.913977	-0.30885	0.74776
C	0.480135	0.940458	0.414017
O	-0.566636	0.876842	-0.450411
H	-1.62425	-0.708177	-1.35303
H	0.119921	-2.3186	0.0543155
H	1.74327	-0.564596	1.4267
H	0.827576	1.94098	0.719764
C	6.28466	0.705393	-0.323863
C	4.98124	1.07624	-0.0694989
N	4.228	0.00543726	0.280543
C	5.06097	-1.02578	0.243476
N	6.31297	-0.6555	-0.115639
H	7.16472	1.29398	-0.628165
H	4.57083	2.09726	-0.13228
H	4.80645	-2.07367	0.470153
H	7.14645	-1.28514	-0.216277
