18
  This energy is -1.2856 and Call times are: 54770
C	0.208846	0.72034	0.85082
C	0.16979	-0.631111	1.0309
C	-0.115992	-1.18851	-0.252747
C	-0.226345	-0.128471	-1.10393
O	-0.0308969	1.04504	-0.44691
H	0.394694	1.54683	1.55624
H	0.326504	-1.18039	1.97315
H	-0.224911	-2.25588	-0.50364
H	-0.438135	-0.077541	-2.18458
C	5.15174	0.202558	-1.0677
C	5.7858	0.372187	0.144869
N	4.96782	0.043647	1.17418
C	3.83063	-0.328384	0.602331
N	3.89114	-0.250175	-0.748155
H	5.49686	0.366508	-2.10093
H	6.81884	0.725746	0.295471
H	2.92192	-0.667124	1.12554
H	3.12395	-0.488928	-1.42318
