18
  This energy is -0.7212 and Call times are: 105296
C	-0.983108	0.564813	0.0297651
C	-0.55395	-0.209633	1.06728
C	0.704969	-0.747083	0.659373
C	0.933986	-0.253621	-0.591394
O	-0.0867328	0.549461	-0.991649
H	-1.89535	1.16938	-0.102752
H	-1.07194	-0.384854	2.02387
H	1.35713	-1.42186	1.23683
H	1.77341	-0.396861	-1.29147
C	5.48289	-0.903316	-0.54928
C	4.85635	0.125552	0.121555
N	5.7596	0.995386	0.635401
C	6.942	0.507993	0.284675
N	6.82851	-0.635897	-0.431026
H	5.07986	-1.7777	-1.08459
H	3.76874	0.255824	0.243996
H	7.92271	0.948857	0.525662
H	7.61561	-1.20974	-0.821456
