18
  This energy is -1.1912 and Call times are: 186074
C	-0.987432	-0.550014	-0.0941472
C	-0.656974	0.173253	1.01403
C	0.642891	0.707493	0.758968
C	0.992013	0.263532	-0.482557
O	0.00808788	-0.505829	-1.01827
H	-1.88835	-1.13403	-0.344171
H	-1.26734	0.316217	1.92018
H	1.24074	1.34703	1.42804
H	1.89972	0.422855	-1.08748
C	5.63306	0.852261	-0.612038
C	5.55783	-0.483342	-0.946179
N	4.86716	-1.18234	-0.0129668
C	4.51526	-0.283802	0.896655
N	4.9534	0.957939	0.58089
H	6.10637	1.7065	-1.12173
H	5.98953	-0.955122	-1.8439
H	3.93638	-0.481111	1.81328
H	4.80384	1.83424	1.13856
