18
  This energy is -2.7908 and Call times are: 41603
C	0.00169732	-0.928259	-0.651715
C	0.0353097	-0.992001	0.710335
C	0.0210438	0.361759	1.16558
C	-0.0200273	1.13326	0.0415352
O	-0.0323652	0.36196	-1.07737
H	-0.00196472	-1.71812	-1.42071
H	0.0669743	-1.90113	1.33209
H	0.0394485	0.710944	2.21048
H	-0.0435389	2.22702	-0.0940356
C	3.69921	-0.370225	1.04278
C	4.85223	-0.779189	0.406818
N	5.00591	-0.145715	-0.781291
C	3.95224	0.653201	-0.882013
N	3.13452	0.554311	0.192758
H	3.25538	-0.661949	2.0079
H	5.57598	-1.51999	0.783974
H	3.7305	1.33161	-1.72155
H	2.24065	1.08148	0.348801
