18
  This energy is -1.1531 and Call times are: 8028
C	-0.740913	-0.43895	0.738086
C	-0.233077	-1.15923	-0.302912
C	0.650788	-0.276134	-0.995044
C	0.605044	0.905831	-0.315899
O	-0.2399	0.824356	0.745442
H	-1.45653	-0.707252	1.53254
H	-0.458292	-2.20727	-0.557833
H	1.24712	-0.503346	-1.8933
H	1.11924	1.86627	-0.484477
C	4.67933	-0.344351	-1.11891
C	3.93088	-0.762617	-0.0390797
N	4.34247	-0.160783	1.10324
C	5.34246	0.627846	0.733484
N	5.58418	0.552738	-0.596748
H	4.63359	-0.612647	-2.18636
H	3.10127	-1.48787	-0.063774
H	5.93217	1.28154	1.39617
H	6.32059	1.07784	-1.12895
