18
  This energy is -1.1472 and Call times are: 198637
C	0.741471	-0.24173	0.823522
C	-0.406822	-0.955075	0.64204
C	-1.06604	-0.357278	-0.475183
C	-0.262392	0.6686	-0.877796
O	0.845894	0.75371	-0.0958296
H	1.5552	-0.341208	1.56055
H	-0.754739	-1.81588	1.23539
H	-2.02669	-0.662436	-0.920285
H	-0.365902	1.4009	-1.69528
C	4.65169	0.236226	1.12589
C	4.1613	0.890258	0.0155288
N	4.65823	0.354992	-1.12599
C	5.45387	-0.62737	-0.725315
N	5.48379	-0.739336	0.623817
H	4.47336	0.390825	2.20192
H	3.45783	1.73877	0.0176266
H	6.03837	-1.29577	-1.37788
H	6.03569	-1.43648	1.18118
