18
  This energy is -1.2011 and Call times are: 56245
C	0.706446	-0.750208	0.473839
C	-0.25106	-1.11595	-0.426044
C	-0.927203	0.0887533	-0.788863
C	-0.323192	1.08432	-0.0786653
O	0.6767	0.589939	0.697745
H	1.46092	-1.34066	1.01917
H	-0.46024	-2.13214	-0.797119
H	-1.76486	0.192326	-1.49718
H	-0.509505	2.17009	-0.0381635
C	5.74634	0.181728	-0.665288
C	7.00781	0.700098	-0.868098
N	7.86768	0.283242	0.0928233
C	7.14241	-0.49079	0.888736
N	5.85672	-0.583706	0.474061
H	4.80917	0.29944	-1.2322
H	7.31292	1.36741	-1.69057
H	7.50282	-1.01411	1.789
H	5.09004	-1.13399	0.933031
