18
  This energy is -1.0308 and Call times are: 183152
C	0.610707	0.94393	-0.149782
C	-0.750163	0.932305	-0.24073
C	-1.14701	-0.4174	0.0061038
C	0.00638743	-1.11141	0.226099
O	1.08958	-0.29572	0.134751
H	1.3442	1.75878	-0.264936
H	-1.40851	1.78831	-0.459674
H	-2.17421	-0.815936	0.0165906
H	0.187712	-2.17455	0.45439
C	4.36286	0.425883	0.570513
C	4.92723	-0.8229	0.722743
N	5.99736	-0.978346	-0.094056
C	6.0965	0.169637	-0.75051
N	5.1338	1.04906	-0.38525
H	3.49609	0.899398	1.0584
H	4.58143	-1.61451	1.40731
H	6.85528	0.419392	-1.50953
H	5.00015	2.02053	-0.758931
