18
  This energy is -0.7799 and Call times are: 83831
C	0.892503	0.0238606	-0.699478
C	-0.209942	0.802757	-0.895206
C	-1.10191	0.494357	0.176893
C	-0.465796	-0.445774	0.933124
O	0.753423	-0.744958	0.412541
H	1.82934	-0.0743198	-1.27215
H	-0.378163	1.5223	-1.71255
H	-2.09921	0.927241	0.356053
H	-0.770051	-0.973063	1.85217
C	5.70002	0.813822	0.602297
C	4.88566	-0.168764	1.1243
N	4.35154	-0.933864	0.141529
C	4.83272	-0.427851	-0.985878
N	5.65085	0.627494	-0.761174
H	6.29133	1.60604	1.08838
H	4.67394	-0.339336	2.19245
H	4.61833	-0.791692	-2.00367
H	6.1522	1.19556	-1.48727
