18
  This energy is -0.9717 and Call times are: 113011
C	-1.12103	-0.171753	-0.013696
C	-0.558085	0.931846	0.556858
C	0.851553	0.7897	0.375661
C	1.02558	-0.388215	-0.289625
O	-0.168544	-0.988717	-0.535565
H	-2.17247	-0.487928	-0.112468
H	-1.08284	1.76266	1.05532
H	1.63704	1.48839	0.705701
H	1.93551	-0.902173	-0.640515
C	4.66009	-0.26322	0.657558
C	5.46706	0.848599	0.775041
N	6.46002	0.831304	-0.14705
C	6.26977	-0.286992	-0.83396
N	5.19693	-0.981949	-0.387151
H	3.77144	-0.583159	1.22454
H	5.3506	1.66294	1.50862
H	6.88643	-0.64508	-1.67404
H	4.84176	-1.89442	-0.764639
