18
  This energy is -0.7455 and Call times are: 113978
C	1.09272	0.226278	-0.202872
C	0.691711	-0.579637	0.821854
C	-0.734327	-0.620478	0.752103
C	-1.07886	0.164085	-0.30909
O	0.024475	0.689249	-0.903955
H	2.09509	0.544039	-0.533829
H	1.33553	-1.09378	1.55347
H	-1.416	-1.17258	1.41888
H	-2.06068	0.42502	-0.737098
C	7.13215	-0.282007	0.154266
C	6.05015	-0.801002	0.833284
N	4.89077	-0.249292	0.399735
C	5.25215	0.608707	-0.544653
N	6.5934	0.625784	-0.729959
H	8.21139	-0.487571	0.235016
H	6.08528	-1.56366	1.62825
H	4.57526	1.24978	-1.13209
H	7.12216	1.21776	-1.41642
