18
  This energy is -0.8393 and Call times are: 182035
C	-0.883625	0.159997	0.692827
C	-0.600081	1.00804	-0.337129
C	0.567416	0.480047	-0.968236
C	0.89425	-0.644027	-0.26823
O	0.0187597	-0.854635	0.749697
H	-1.68798	0.168542	1.44661
H	-1.15718	1.91446	-0.623701
H	1.0955	0.895714	-1.84142
H	1.71435	-1.37013	-0.392567
C	5.58716	0.814331	0.842155
C	4.59515	0.343095	0.00849226
N	5.07744	-0.593195	-0.844309
C	6.36376	-0.702392	-0.540855
N	6.7199	0.125607	0.469673
H	5.56784	1.56597	1.64726
H	3.54006	0.661911	0.00707555
H	7.09024	-1.37323	-1.02709
H	7.67664	0.22415	0.889438
