18
  This energy is -1.4684 and Call times are: 25077
C	0.689774	-0.513133	0.739802
C	0.994797	-0.398099	-0.584623
C	-0.101858	0.29735	-1.17945
C	-0.980221	0.545903	-0.166001
O	-0.512832	0.0578624	1.01314
H	1.23743	-0.972667	1.57894
H	1.90113	-0.766063	-1.09183
H	-0.214857	0.575801	-2.23954
H	-1.95845	1.05402	-0.154502
C	5.32496	-0.452965	1.06269
C	6.1564	-0.470236	-0.0371074
N	5.57711	0.143729	-1.09728
C	4.3908	0.540377	-0.656868
N	4.19127	0.204239	0.639585
H	5.45545	-0.848644	2.08247
H	7.16389	-0.914705	-0.0846199
H	3.62928	1.08093	-1.24178
H	3.33592	0.405849	1.21317
