18
  This energy is -0.9087 and Call times are: 115373
C	0.97283	0.184538	0.553126
C	0.737097	0.680389	-0.695447
C	-0.575169	0.241177	-1.04924
C	-1.0255	-0.484297	0.0143695
O	-0.0929982	-0.529273	1.00201
H	1.84673	0.267908	1.2199
H	1.4189	1.2939	-1.30606
H	-1.11311	0.446439	-1.9887
H	-1.97748	-1.01205	0.188882
C	6.88518	-0.557144	-1.03029
C	6.19173	0.558421	-0.611023
N	6.57712	0.934534	0.632569
C	7.50613	0.0556426	0.983457
N	7.72781	-0.86409	0.0146741
H	6.84017	-1.13503	-1.96707
H	5.42023	1.09864	-1.18356
H	8.05604	0.0393555	1.93822
H	8.41134	-1.65946	0.0523917
