18
  This energy is -1.2509 and Call times are: 154578
C	0.987415	0.0477601	0.555996
C	0.917816	-0.114623	-0.796469
C	-0.473849	-0.125961	-1.11781
C	-1.13182	0.0304949	0.0666618
O	-0.254979	0.138173	1.09941
H	1.84856	0.113653	1.24108
H	1.76181	-0.216229	-1.4975
H	-0.923398	-0.238106	-2.11752
H	-2.20705	0.0806123	0.304641
C	5.27593	-1.15464	-0.144699
C	5.76004	-0.137756	-0.940134
N	5.36239	1.07354	-0.480613
C	4.63436	0.809106	0.595803
N	4.5523	-0.520223	0.840219
H	5.3913	-2.24838	-0.207722
H	6.38912	-0.256391	-1.83737
H	4.13836	1.55133	1.2418
H	4.03584	-0.980001	1.62961
