18
  This energy is -1.5345 and Call times are: 165934
C	0.342712	1.07145	0.144722
C	-0.473877	0.698127	-0.882013
C	-0.677952	-0.707149	-0.728156
C	0.0319445	-1.06852	0.379018
O	0.661518	0.00518136	0.924752
H	0.762393	2.05128	0.425896
H	-0.890707	1.34722	-1.6688
H	-1.28447	-1.36425	-1.37193
H	0.167676	-2.04399	0.874271
C	3.6932	0.0976787	-0.743812
C	4.97294	0.575167	-0.931977
N	5.76381	0.284797	0.129497
C	4.97768	-0.370336	0.972963
N	3.71942	-0.508844	0.492161
H	2.79563	0.144994	-1.38073
H	5.33978	1.12398	-1.81463
H	5.27231	-0.77078	1.95636
H	2.91675	-0.987138	0.969893
