18
  This energy is -1.0341 and Call times are: 46831
C	-0.666144	-0.108575	0.911518
C	0.530498	-0.753603	0.800338
C	1.06466	-0.370827	-0.467837
C	0.147285	0.47432	-1.01967
O	-0.916131	0.645783	-0.190962
H	-1.42236	-0.103772	1.71362
H	0.99086	-1.431	1.53742
H	2.02152	-0.692437	-0.909511
H	0.134308	1.01172	-1.98211
C	5.28237	0.578707	1.00843
C	4.80651	-0.707636	0.866945
N	4.72031	-1.05576	-0.439918
C	5.14109	0.0105643	-1.10664
N	5.49145	1.02272	-0.278163
H	5.48041	1.1892	1.90376
H	4.52383	-1.39077	1.68442
H	5.21276	0.103941	-2.20226
H	5.85341	1.96599	-0.561862
