18
  This energy is -1.1755 and Call times are: 138888
C	0.103551	1.11427	-0.184612
C	-0.459689	0.271868	-1.09757
C	-0.409937	-1.0297	-0.511428
C	0.179313	-0.867769	0.707972
O	0.499443	0.435237	0.92408
H	0.278606	2.20249	-0.204461
H	-0.869122	0.540118	-2.08474
H	-0.773126	-1.97125	-0.953781
H	0.423593	-1.59056	1.50368
C	5.36963	0.181059	0.871765
C	3.99508	0.147949	0.975023
N	3.42001	-0.0841228	-0.229944
C	4.43395	-0.194564	-1.07751
N	5.63031	-0.0423816	-0.461767
H	6.15457	0.342431	1.62766
H	3.408	0.287355	1.89738
H	4.35669	-0.386659	-2.1598
H	6.57624	-0.0862456	-0.914045
