18
  This energy is -2.0131 and Call times are: 65217
C	-0.481741	1.02093	0.109692
C	-0.507231	0.32334	-1.0621
C	0.192663	-0.895331	-0.80694
C	0.584061	-0.834876	0.498252
O	0.180662	0.328505	1.07343
H	-0.892815	2.00667	0.382803
H	-0.972242	0.635621	-2.01096
H	0.378196	-1.7158	-1.51863
H	1.14682	-1.5448	1.12639
C	3.6548	0.200394	1.15059
C	4.1651	-0.939944	0.567175
N	4.18991	-0.828781	-0.783209
C	3.69687	0.375937	-1.03657
N	3.35939	1.03591	0.0966241
H	3.48658	0.467547	2.20599
H	4.51582	-1.84091	1.09643
H	3.56106	0.824655	-2.03379
H	2.95059	2.00032	0.160224
