18
  This energy is -0.9072 and Call times are: 81428
C	0.861914	0.0191547	-0.73698
C	-0.436568	0.166464	-1.12765
C	-1.21566	0.0871374	0.0668587
C	-0.324493	-0.101644	1.08202
O	0.948906	-0.145648	0.609231
H	1.80228	0.0131987	-1.31224
H	-0.808451	0.315986	-2.15402
H	-2.3117	0.162926	0.15077
H	-0.468153	-0.217975	2.1688
C	4.78281	0.0720681	-1.05471
C	4.60666	-0.919269	-0.112706
N	5.35984	-0.685484	0.98937
C	6.0008	0.446582	0.732045
N	5.68667	0.942785	-0.488075
H	4.34357	0.214778	-2.05483
H	3.9496	-1.79901	-0.208523
H	6.71174	0.956227	1.40217
H	6.06044	1.82307	-0.920105
