18
  This energy is -0.7363 and Call times are: 77890
C	0.338957	-0.841669	-0.680516
C	-0.969369	-0.658651	-0.341161
C	-0.994962	0.484058	0.515389
C	0.299983	0.898459	0.623845
O	1.12815	0.100272	-0.100063
H	0.830363	-1.59456	-1.31843
H	-1.83008	-1.26728	-0.661842
H	-1.87947	0.937568	0.990865
H	0.75578	1.73554	1.17774
C	5.435	-1.13538	0.302965
C	4.50139	-0.154703	0.563309
N	4.89996	1.04279	0.0697023
C	6.07638	0.805915	-0.494715
N	6.44283	-0.49266	-0.380691
H	5.45293	-2.20932	0.547653
H	3.54733	-0.28976	1.09847
H	6.71187	1.54729	-1.00534
H	7.32636	-0.927102	-0.743878
