18
  This energy is -0.6902 and Call times are: 108581
C	-0.931434	-0.163038	-0.626299
C	0.265609	-0.74015	-0.933552
C	1.18011	-0.303169	0.0728507
C	0.461183	0.502399	0.906259
O	-0.830307	0.599198	0.494318
H	-1.91622	-0.215501	-1.11894
H	0.482825	-1.4067	-1.78362
H	2.24736	-0.563553	0.158225
H	0.748839	1.05795	1.81393
C	7.09958	0.127708	0.399636
C	6.02778	0.959413	0.645937
N	4.90874	0.510612	0.0272111
C	5.28488	-0.595311	-0.600544
N	6.59686	-0.868778	-0.406886
H	8.14945	0.172927	0.730191
H	6.0419	1.87528	1.259
H	4.64	-1.24315	-1.21591
H	7.12961	-1.68448	-0.796829
