18
  This energy is -1.9635 and Call times are: 198050
C	0.532915	0.01547	-1.00108
C	0.124639	1.15544	-0.373257
C	-0.495958	0.73197	0.841507
C	-0.412136	-0.629388	0.848773
O	0.213256	-1.08397	-0.268925
H	1.05419	-0.144979	-1.95909
H	0.248109	2.19068	-0.729806
H	-0.949329	1.3736	1.61407
H	-0.75436	-1.37905	1.58099
C	4.07347	1.12296	-0.221956
C	3.76324	0.573595	1.00405
N	3.49948	-0.751047	0.893275
C	3.64554	-1.02242	-0.396549
N	3.99129	0.0746451	-1.11104
H	4.33809	2.15141	-0.514885
H	3.72499	1.1093	1.96655
H	3.51133	-2.0077	-0.871359
H	4.16388	0.118327	-2.14524
