18
  This energy is -0.5886 and Call times are: 187782
C	1.01292	-0.380886	0.339574
C	-0.135691	-0.650214	1.02406
C	-1.18412	-0.00913632	0.296092
C	-0.583629	0.595353	-0.768981
O	0.757992	0.378678	-0.758189
H	2.06052	-0.667914	0.527733
H	-0.234732	-1.24105	1.94883
H	-2.25766	-0.00409833	0.544219
H	-0.994814	1.20032	-1.59372
C	6.83957	-0.383688	0.396455
C	5.67125	-0.264422	1.11892
N	4.66497	0.210996	0.345694
C	5.20695	0.386	-0.851909
N	6.51637	0.0416393	-0.872729
H	7.84457	-0.729594	0.686018
H	5.53638	-0.512894	2.18425
H	4.69016	0.763653	-1.74887
H	7.16232	0.0895261	-1.69839
