18
  This energy is -2.678 and Call times are: 96797
C	-0.259615	1.10308	0.0470605
C	-0.220554	0.313817	1.15878
C	0.138039	-0.990408	0.699947
C	0.286454	-0.883005	-0.651649
O	0.0473905	0.388579	-1.0675
H	-0.489193	2.17356	-0.0818705
H	-0.423865	0.619392	2.19771
H	0.268037	-1.8971	1.3124
H	0.555822	-1.62723	-1.419
C	3.62254	0.904895	0.327581
C	4.89569	0.971913	-0.197547
N	5.3808	-0.265455	-0.462298
C	4.4123	-1.09694	-0.102781
N	3.33106	-0.439912	0.379744
H	2.92655	1.69274	0.656867
H	5.4729	1.89093	-0.390134
H	4.44242	-2.1963	-0.17157
H	2.4404	-0.872515	0.727363
