18
  This energy is -0.6838 and Call times are: 15518
C	1.11138	-0.159379	-0.160695
C	0.194186	-0.359639	-1.15015
C	-1.07691	-0.0605622	-0.57138
C	-0.824259	0.296058	0.720657
O	0.506968	0.24133	0.988707
H	2.20852	-0.266136	-0.148283
H	0.392795	-0.6853	-2.18388
H	-2.05979	-0.108233	-1.06715
H	-1.49574	0.605437	1.53837
C	6.1538	1.019	0.375226
C	6.36508	0.419798	-0.848481
N	5.68531	-0.748638	-0.944271
C	5.05471	-0.873824	0.2156
N	5.30508	0.166526	1.04541
H	6.53464	1.96032	0.802325
H	6.99583	0.809634	-1.66397
H	4.39693	-1.70755	0.509625
H	4.92506	0.298581	2.01464
