18
  This energy is -0.7663 and Call times are: 186106
C	0.491801	0.763916	0.678944
C	-0.854189	0.741024	0.459491
C	-1.08574	-0.346537	-0.437011
C	0.1392	-0.892231	-0.686256
O	1.11414	-0.226562	-0.0129107
H	1.12061	1.42542	1.29722
H	-1.60835	1.42171	0.886123
H	-2.05511	-0.676734	-0.843671
H	0.445831	-1.74396	-1.31537
C	5.24433	0.818401	0.767339
C	4.54726	0.351341	-0.326783
N	5.25726	-0.591806	-0.992279
C	6.39048	-0.709401	-0.313594
N	6.43094	0.119828	0.75614
H	4.98847	1.57328	1.52776
H	3.54476	0.677995	-0.647914
H	7.22448	-1.3875	-0.556194
H	7.21656	0.212868	1.44564
