18
  This energy is -1.2321 and Call times are: 50377
C	-1.10028	-0.130603	0.242336
C	-0.194889	0.300526	1.16687
C	1.06444	0.336077	0.493865
C	0.81744	-0.0764654	-0.782525
O	-0.499402	-0.365613	-0.953794
H	-2.18605	-0.308821	0.310142
H	-0.393879	0.566799	2.21739
H	2.03599	0.635393	0.918832
H	1.48391	-0.205218	-1.65114
C	5.72911	1.04978	-0.0556095
C	5.9769	0.0454868	0.856061
N	5.18382	-1.0292	0.62674
C	4.44684	-0.692895	-0.423201
N	4.73812	0.551226	-0.87143
H	6.17305	2.05058	-0.1775
H	6.71371	0.0770898	1.67518
H	3.67903	-1.31992	-0.904376
H	4.29372	1.04245	-1.68535
