18
  This energy is -0.7465 and Call times are: 51558
C	0.148482	-1.12402	-0.0305979
C	-1.04931	-0.537433	-0.316233
C	-0.84063	0.868166	-0.171802
C	0.46626	1.01644	0.189342
O	1.08543	-0.189946	0.280288
H	0.45897	-2.18164	-0.0134127
H	-1.98585	-1.04376	-0.600154
H	-1.58321	1.66833	-0.321476
H	1.0671	1.91458	0.407488
C	6.28319	0.31574	-0.710896
C	6.07838	0.729471	0.588344
N	4.9608	0.167565	1.10966
C	4.47413	-0.591868	0.137525
N	5.23575	-0.536458	-0.980717
H	7.07382	0.55932	-1.4383
H	6.717	1.42335	1.15892
H	3.56305	-1.20936	0.191152
H	5.06152	-1.04566	-1.88161
