18
  This energy is -0.7392 and Call times are: 149404
C	-0.0246538	0.62447	0.946483
C	1.11907	0.430186	0.229173
C	0.751824	-0.397048	-0.875787
C	-0.583892	-0.635249	-0.736159
O	-1.07449	-0.0190321	0.371363
H	-0.220236	1.19199	1.8711
H	2.12084	0.829361	0.455456
H	1.41225	-0.766781	-1.67655
H	-1.29045	-1.21875	-1.34898
C	6.41314	-0.973065	-0.24959
C	6.52524	-0.191539	0.880806
N	5.66459	0.854423	0.839015
C	5.02101	0.722285	-0.312927
N	5.4365	-0.364393	-1.00581
H	6.94162	-1.88875	-0.55907
H	7.21171	-0.363654	1.72578
H	4.23614	1.393	-0.698101
H	5.08216	-0.682622	-1.94092
