18
  This energy is -1.029 and Call times are: 77570
C	-0.419193	-0.317889	-1.0048
C	0.347819	-1.14544	-0.238492
C	0.679036	-0.398212	0.932859
C	0.0851873	0.819994	0.778943
O	-0.589743	0.886549	-0.398788
H	-0.897197	-0.465561	-1.98712
H	0.650044	-2.17844	-0.474418
H	1.28913	-0.736672	1.7857
H	0.0680399	1.71202	1.42644
C	6.21631	0.101283	-0.358732
C	5.09796	-0.0148391	-1.15683
N	3.97197	-0.112114	-0.409035
C	4.3902	-0.05655	0.848194
N	5.73561	0.0720464	0.931332
H	7.28458	0.199383	-0.60916
H	5.08337	-0.0301737	-2.25883
H	3.75363	-0.105525	1.74631
H	6.30423	0.137087	1.81094
