18
  This energy is -0.8938 and Call times are: 108453
C	-0.823868	0.263053	-0.733789
C	-0.599366	-1.01553	-0.315208
C	0.50321	-0.942728	0.589857
C	0.855144	0.37391	0.644453
O	0.055224	1.12466	-0.157736
H	-1.56775	0.684544	-1.42966
H	-1.1545	-1.91927	-0.613829
H	0.972914	-1.7788	1.13249
H	1.64539	0.896691	1.20789
C	5.72292	-1.13008	-0.241507
C	4.55005	-0.606899	0.260295
N	4.64181	0.736029	0.41725
C	5.86695	1.04479	0.014351
N	6.55851	-0.0460096	-0.392449
H	6.01243	-2.16266	-0.493469
H	3.63927	-1.17437	0.511901
H	6.30879	2.05409	-0.00363539
H	7.54354	-0.0627372	-0.753959
