18
  This energy is -1.4218 and Call times are: 137010
C	-0.158193	-0.238868	1.09741
C	-0.282593	-1.18143	0.119415
C	-0.0119208	-0.507049	-1.11025
C	0.25399	0.78808	-0.775125
O	0.169145	0.969725	0.569054
H	-0.275493	-0.300941	2.19178
H	-0.539219	-2.24491	0.250742
H	-0.0169589	-0.9437	-2.12188
H	0.513304	1.66434	-1.39171
C	3.92865	-0.16199	-1.10497
C	3.84072	-1.06002	-0.0623994
N	4.36866	-0.543076	1.07363
C	4.78253	0.671043	0.7371
N	4.53981	0.948027	-0.565957
H	3.61018	-0.231939	-2.15721
H	3.40581	-2.07169	-0.109548
H	5.26989	1.39875	1.40579
H	4.7728	1.83867	-1.06967
