18
  This energy is -0.9837 and Call times are: 94728
C	1.05068	0.415971	0.0971174
C	0.0268243	1.13678	-0.443734
C	-1.11967	0.286456	-0.392637
C	-0.695212	-0.878908	0.174929
O	0.627644	-0.817393	0.480344
H	2.11179	0.664399	0.263218
H	0.0741826	2.1642	-0.83902
H	-2.13798	0.523511	-0.740428
H	-1.22934	-1.81362	0.412127
C	5.57589	0.209974	-1.09531
C	5.88834	0.92906	0.038898
N	5.27944	0.407351	1.1314
C	4.59186	-0.631439	0.676684
N	4.73803	-0.792304	-0.659858
H	5.88032	0.336342	-2.14645
H	6.54222	1.81497	0.0884921
H	3.96465	-1.30809	1.27916
H	4.29712	-1.53839	-1.25164
