18
  This energy is -1.5039 and Call times are: 66514
C	0.0538586	-0.0318225	1.13247
C	-0.517605	1.00641	0.457285
C	-0.393689	0.686583	-0.929248
C	0.242559	-0.518859	-0.978954
O	0.523374	-0.97232	0.271057
H	0.187363	-0.2175	2.21087
H	-0.980015	1.90712	0.892013
H	-0.74092	1.29002	-1.78329
H	0.548481	-1.14955	-1.82977
C	5.06926	-0.946147	-0.51932
C	5.65322	0.294799	-0.377235
N	4.82842	1.15143	0.27269
C	3.73693	0.444599	0.532811
N	3.83306	-0.826253	0.0753341
H	5.43376	-1.87509	-0.98595
H	6.6549	0.587375	-0.732033
H	2.83774	0.808522	1.05555
H	3.10466	-1.57717	0.157901
