18
  This energy is -1.1284 and Call times are: 115565
C	-0.318239	-0.318324	1.04105
C	-0.0560111	-1.21829	0.0502595
C	0.308105	-0.444947	-1.09407
C	0.23624	0.859325	-0.701535
O	-0.144782	0.955229	0.599479
H	-0.632335	-0.45533	2.08883
H	-0.113247	-2.31655	0.118394
H	0.589312	-0.824394	-2.08957
H	0.428776	1.79835	-1.24598
C	3.94813	-0.0405217	0.238009
C	4.97871	-0.428471	1.06779
N	6.18171	-0.244703	0.47153
C	5.89852	0.255349	-0.723616
N	4.5652	0.397365	-0.912501
H	2.85573	-0.0449173	0.38007
H	4.87579	-0.837679	2.08603
H	6.62929	0.535237	-1.49941
H	4.09171	0.770041	-1.77168
