18
  This energy is -1.1428 and Call times are: 29582
C	-0.198679	-0.573286	-0.958265
C	0.262474	-1.1794	0.173257
C	0.385092	-0.143825	1.14931
C	-0.0119552	1.00369	0.528073
O	-0.37191	0.759953	-0.759574
H	-0.440113	-0.974704	-1.95617
H	0.493154	-2.24849	0.307159
H	0.729745	-0.250358	2.19044
H	-0.0827782	2.04317	0.88824
C	4.03734	-0.663418	0.135099
C	5.13576	-0.94879	-0.647957
N	6.06209	0.03715	-0.568254
C	5.54032	0.930773	0.261094
N	4.3204	0.554287	0.712382
H	3.10535	-1.22207	0.31635
H	5.27646	-1.84843	-1.26901
H	6.00897	1.87831	0.572159
H	3.70706	1.08827	1.37566
