18
  This energy is -1.5349 and Call times are: 106647
C	-0.0531865	-0.447271	-1.04092
C	-0.135915	0.895785	-0.817915
C	-0.0305134	1.0645	0.596491
C	0.107321	-0.190352	1.11295
O	0.0955836	-1.12583	0.127168
H	-0.0863887	-1.03727	-1.97154
H	-0.258833	1.68819	-1.57362
H	-0.0554614	2.01372	1.15547
H	0.220775	-0.545604	2.15033
C	4.89472	-1.03591	-0.259291
C	3.5647	-0.697626	-0.392522
N	3.34391	0.580515	5.84237e-05
C	4.53244	1.03343	0.375408
N	5.5003	0.0964491	0.237924
H	5.4351	-1.97112	-0.475894
H	2.76046	-1.3529	-0.764882
H	4.7503	2.04329	0.758746
H	6.5181	0.210798	0.466536
