18
  This energy is -2.6014 and Call times are: 182446
C	0.403152	0.978092	-0.408908
C	0.537957	0.623223	0.901157
C	-0.0877026	-0.654653	1.02646
C	-0.549607	-0.967868	-0.218091
O	-0.25859	0.0180509	-1.10707
H	0.729867	1.87469	-0.960833
H	1.02874	1.20315	1.69922
H	-0.178461	-1.2625	1.941
H	-1.09344	-1.84931	-0.595666
C	4.20444	1.10544	0.0813594
C	5.52053	0.700727	0.00889004
N	5.61282	-0.648627	-0.0761887
C	4.35875	-1.07937	-0.0565744
N	3.47236	-0.0600238	0.0374576
H	3.75211	2.10694	0.158493
H	6.40515	1.35818	0.0164684
H	4.03316	-2.13082	-0.108385
H	2.42668	-0.141916	0.0706038
