18
  This energy is -1.3599 and Call times are: 160090
C	1.02778	-0.296517	0.377033
C	0.666825	1.00506	0.187322
C	-0.680168	0.97216	-0.286644
C	-1.02344	-0.346614	-0.344727
O	0.00766257	-1.13556	0.0570429
H	1.9681	-0.750338	0.730719
H	1.28691	1.89868	0.363474
H	-1.3121	1.8352	-0.551041
H	-1.95732	-0.846211	-0.650519
C	4.67584	0.986916	-0.480809
C	5.61321	0.136489	-1.02784
N	5.87018	-0.905096	-0.199849
C	5.09518	-0.701614	0.856835
N	4.35574	0.426264	0.735495
H	4.22882	1.92027	-0.858391
H	6.1087	0.255812	-2.00514
H	5.03	-1.34725	1.74741
H	3.66937	0.802048	1.43474
