18
  This energy is -1.9048 and Call times are: 57430
C	-0.167013	-0.240574	1.09573
C	-0.482657	-1.11673	0.0991944
C	-0.132015	-0.463281	-1.12153
C	0.366948	0.754506	-0.763197
O	0.353019	0.907433	0.587148
H	-0.262757	-0.314238	2.19148
H	-0.918672	-2.12231	0.212373
H	-0.242111	-0.861476	-2.14301
H	0.759088	1.59005	-1.36597
C	3.95477	-1.15985	0.194426
C	4.58366	-0.213734	0.975778
N	4.43469	1.02814	0.454184
C	3.71612	0.853123	-0.646565
N	3.40171	-0.448635	-0.846964
H	3.86466	-2.25246	0.302168
H	5.14221	-0.404953	1.90653
H	3.39224	1.64385	-1.34233
H	2.84307	-0.841322	-1.64382
