18
  This energy is -0.6922 and Call times are: 171947
C	-0.406168	-1.033	-0.233091
C	-1.1231	0.103574	-0.466689
C	-0.288204	1.18504	-0.050158
C	0.865225	0.613857	0.401206
O	0.810542	-0.740074	0.296835
H	-0.646742	-2.09606	-0.398259
H	-2.13806	0.173403	-0.889867
H	-0.527128	2.26008	-0.0861732
H	1.78633	1.05555	0.815599
C	5.98186	-0.914578	0.736165
C	4.88662	-0.0980408	0.549481
N	5.1419	0.857715	-0.376735
C	6.39076	0.634949	-0.76318
N	6.94068	-0.422925	-0.121241
H	6.1415	-1.7818	1.39646
H	3.91679	-0.181422	1.06651
H	6.9512	1.21622	-1.51302
H	7.91231	-0.797272	-0.251803
