18
  This energy is -1.8102 and Call times are: 105007
C	0.704289	0.826127	-0.328471
C	0.737665	-0.42275	-0.875797
C	-0.284184	-1.16798	-0.212035
C	-0.851792	-0.30871	0.682311
O	-0.260443	0.913585	0.624763
H	1.30586	1.72811	-0.527973
H	1.41402	-0.783053	-1.66752
H	-0.557635	-2.22096	-0.386799
H	-1.67203	-0.443639	1.40637
C	6.02029	-0.288917	0.982626
C	7.35776	-0.496533	0.719541
N	7.69018	-0.0393707	-0.512127
C	6.56322	0.449995	-1.01124
N	5.52753	0.323152	-0.148195
H	5.40481	-0.525521	1.86509
H	8.08882	-0.968003	1.39638
H	6.44039	0.912582	-2.00379
H	4.53775	0.632185	-0.30971
