18
  This energy is -1.0216 and Call times are: 160187
C	-0.399376	0.760472	-0.740663
C	-1.21518	-0.0966432	-0.0622912
C	-0.355219	-0.88561	0.761185
C	0.910182	-0.440974	0.513333
O	0.901913	0.564127	-0.401388
H	-0.619029	1.54618	-1.48206
H	-2.31246	-0.166317	-0.134532
H	-0.65317	-1.68862	1.45436
H	1.88708	-0.753036	0.917722
C	4.38549	0.734108	-0.0992513
C	4.89806	0.203506	1.0656
N	5.95508	-0.605271	0.810459
C	6.09771	-0.576522	-0.507666
N	5.17527	0.217021	-1.10178
H	3.54272	1.42019	-0.279711
H	4.52411	0.389769	2.08556
H	6.86105	-1.11788	-1.08946
H	5.07988	0.402948	-2.13017
