18
  This energy is -1.1265 and Call times are: 132506
C	0.791444	-0.80095	0.136002
C	-0.261334	-0.66157	0.991926
C	-1.02585	0.438101	0.495576
C	-0.372762	0.873638	-0.619843
O	0.739253	0.128343	-0.854302
H	1.63366	-1.51211	0.122676
H	-0.47783	-1.27191	1.88339
H	-1.95295	0.849897	0.925689
H	-0.594292	1.69256	-1.32379
C	5.45146	-0.784357	0.211873
C	4.91351	-0.45812	-1.01504
N	3.94961	0.486271	-0.890426
C	3.88981	0.744926	0.40886
N	4.7757	0.00425548	1.1161
H	6.241	-1.49809	0.496036
H	5.20363	-0.887254	-1.98794
H	3.21549	1.46756	0.896018
H	4.92025	0.0265005	2.15527
