18
  This energy is -0.679 and Call times are: 71204
C	0.712832	-0.83193	0.293537
C	0.804291	0.425707	0.813497
C	-0.250257	1.17617	0.209471
C	-0.893043	0.310886	-0.626279
O	-0.318193	-0.919991	-0.587511
H	1.3129	-1.74024	0.467121
H	1.54051	0.788528	1.54865
H	-0.494236	2.23655	0.383181
H	-1.76027	0.446771	-1.29314
C	6.91511	0.558798	0.205903
C	6.71359	-0.501957	-0.651613
N	5.41778	-0.898567	-0.642152
C	4.81769	-0.0869451	0.217962
N	5.67798	0.809633	0.756156
H	7.82111	1.13374	0.455194
H	7.47997	-0.988212	-1.27696
H	3.75024	-0.105435	0.490765
H	5.44664	1.55403	1.45874
