18
  This energy is -1.0486 and Call times are: 175591
C	0.0821217	-1.10888	-0.223706
C	-1.11743	-0.46227	-0.16594
C	-0.812959	0.900488	0.134568
C	0.545779	0.966339	0.23391
O	1.10866	-0.251677	0.0180175
H	0.335717	-2.16261	-0.425206
H	-2.11647	-0.900939	-0.319536
H	-1.52899	1.72849	0.260293
H	1.22302	1.80876	0.450538
C	5.28226	1.11115	-0.0656494
C	5.74762	0.124421	0.777526
N	5.07918	-1.03853	0.584525
C	4.20248	-0.774266	-0.374734
N	4.28539	0.50862	-0.80008
H	5.58	2.16434	-0.190846
H	6.55371	0.230799	1.52167
H	3.4762	-1.48366	-0.803115
H	3.70152	0.958556	-1.54702
