18
  This energy is -0.8875 and Call times are: 102119
C	0.202197	-1.06476	-0.334383
C	-1.05723	-0.544438	-0.275228
C	-0.90389	0.799493	0.183526
C	0.435697	0.981794	0.364211
O	1.12631	-0.146483	0.0526658
H	0.568347	-2.06122	-0.631429
H	-1.99967	-1.05572	-0.529168
H	-1.70381	1.53738	0.355995
H	1.0152	1.85527	0.705475
C	5.28159	0.720295	-0.904746
C	6.50467	0.479045	-0.315658
N	6.39011	-0.407667	0.702737
C	5.10086	-0.715339	0.745272
N	4.39037	-0.061146	-0.203844
H	4.99201	1.37105	-1.7451
H	7.46772	0.92891	-0.607218
H	4.62366	-1.41391	1.45132
H	3.35741	-0.13512	-0.373472
