18
  This energy is -0.9799 and Call times are: 108293
C	0.38247	-0.248628	-1.03841
C	1.16548	-0.355208	0.0733026
C	0.341308	0.0388947	1.17127
C	-0.872584	0.351515	0.633588
O	-0.865378	0.181665	-0.714785
H	0.592559	-0.446542	-2.10234
H	2.21787	-0.678881	0.115898
H	0.627634	0.0815384	2.23443
H	-1.80925	0.701956	1.09738
C	5.54248	-0.84517	0.803722
C	6.60188	-0.721245	-0.0700492
N	6.46013	0.37226	-0.857872
C	5.31715	0.924616	-0.474304
N	4.72578	0.227886	0.524914
H	5.31941	-1.59598	1.57836
H	7.46595	-1.40127	-0.146125
H	4.86675	1.83965	-0.891523
H	3.81807	0.460751	0.997253
