18
  This energy is -1.765 and Call times are: 83284
C	0.180393	0.750647	-0.830896
C	-0.42614	1.09139	0.3423
C	-0.471357	-0.105146	1.12101
C	0.111536	-1.07144	0.354925
O	0.515451	-0.566417	-0.840405
H	0.428238	1.34529	-1.72545
H	-0.803819	2.08558	0.630438
H	-0.891065	-0.223116	2.13295
H	0.296466	-2.14165	0.543867
C	4.0209	-0.823947	-0.810807
C	4.29082	-0.898186	0.539295
N	3.90421	0.232899	1.1778
C	3.39638	1.00589	0.227427
N	3.44385	0.413525	-0.989305
H	4.19288	-1.54025	-1.62987
H	4.7576	-1.74762	1.0641
H	2.97608	2.01483	0.367526
H	3.10553	0.819559	-1.89591
