18
  This energy is -1.0308 and Call times are: 190633
C	-0.314579	-0.914979	-0.591822
C	0.989861	-0.651314	-0.293008
C	0.98186	0.56815	0.450606
C	-0.326764	0.94203	0.54056
O	-1.1324	0.0477631	-0.0905118
H	-0.784396	-1.74331	-1.14715
H	1.86947	-1.255	-0.568591
H	1.85403	1.09795	0.866207
H	-0.807713	1.81046	1.0199
C	5.75505	0.427343	0.997696
C	5.67177	1.07379	-0.217339
N	5.08853	0.284438	-1.15182
C	4.81104	-0.847403	-0.518923
N	5.19355	-0.810922	0.779517
H	6.16063	0.750082	1.96975
H	6.02207	2.09562	-0.436438
H	4.32829	-1.73497	-0.958711
H	5.08337	-1.57948	1.48552
