18
  This energy is -1.4828 and Call times are: 42264
C	0.61909	0.925128	-0.217409
C	-0.131519	0.797897	0.914303
C	-0.755206	-0.484148	0.82774
C	-0.330665	-1.02718	-0.349227
O	0.509263	-0.180193	-1.00049
H	1.26678	1.7414	-0.577195
H	-0.23557	1.5331	1.7284
H	-1.43897	-0.940597	1.56137
H	-0.550773	-1.99475	-0.829457
C	5.26551	0.920814	-0.466251
C	5.71738	-0.380103	-0.398662
N	4.80739	-1.18272	0.204846
C	3.79483	-0.382767	0.510494
N	4.02284	0.895564	0.126478
H	5.72498	1.83236	-0.880384
H	6.68372	-0.753952	-0.774548
H	2.86212	-0.681103	1.01575
H	3.3762	1.71191	0.255653
