18
  This energy is -0.758 and Call times are: 180436
C	-0.416482	-1.04515	0.143517
C	-1.19908	0.0695012	0.217418
C	-0.326272	1.17611	-0.0144292
C	0.912633	0.639994	-0.209543
O	0.876038	-0.715377	-0.116581
H	-0.65593	-2.11534	0.255872
H	-2.28231	0.108542	0.415342
H	-0.598241	2.24373	-0.0320053
H	1.88761	1.10954	-0.41978
C	4.92681	0.255444	0.410006
C	5.25908	-0.757469	-0.464493
N	6.58928	-0.762713	-0.723423
C	7.08037	0.243123	-0.0122607
N	6.11777	0.88813	0.688425
H	3.95941	0.560631	0.839575
H	4.56282	-1.48459	-0.913245
H	8.13747	0.55105	0.031811
H	6.25293	1.71302	1.32289
