18
  This energy is -1.6155 and Call times are: 177837
C	0.605887	0.806742	-0.51814
C	-0.140497	1.05593	0.595947
C	-0.746734	-0.188825	0.946901
C	-0.317297	-1.08879	0.0162963
O	0.509554	-0.497998	-0.886088
H	1.24156	1.46366	-1.13428
H	-0.252882	2.01962	1.11822
H	-1.42261	-0.382129	1.79538
H	-0.525144	-2.16383	-0.111527
C	4.50952	0.150113	-1.14833
C	3.77452	-0.861045	-0.566531
N	3.73828	-0.725443	0.78136
C	4.44809	0.365689	1.03479
N	4.93446	0.929961	-0.0959751
H	4.75214	0.362827	-2.20162
H	3.26974	-1.686	-1.09519
H	4.64325	0.795857	2.03033
H	5.5231	1.79643	-0.15902
