18
  This energy is -1.0312 and Call times are: 108389
C	-0.189765	-0.781308	0.799968
C	-0.575715	0.519076	0.942868
C	-0.167692	1.18189	-0.254759
C	0.431574	0.228033	-1.02379
O	0.426953	-0.976898	-0.395195
H	-0.294391	-1.65253	1.46725
H	-1.09558	0.96665	1.80514
H	-0.308306	2.24555	-0.505674
H	0.894672	0.279049	-2.02288
C	5.85233	-0.237176	-0.0311085
C	4.85975	-0.858039	-0.759428
N	3.64346	-0.332557	-0.474806
C	3.88058	0.610714	0.426656
N	5.19733	0.707187	0.727405
H	6.94209	-0.395269	5.6247e-05
H	4.99944	-1.67574	-1.48517
H	3.1265	1.26035	0.899473
H	5.63575	1.37428	1.40861
