18
  This energy is -0.8153 and Call times are: 146938
C	1.1035	-0.0239881	-0.260998
C	0.423173	-1.13644	0.138979
C	-0.919998	-0.710443	0.372511
C	-0.941894	0.624725	0.0946254
O	0.285336	1.0607	-0.293759
H	2.15773	0.124929	-0.546787
H	0.826704	-2.15486	0.257665
H	-1.76493	-1.3329	0.708262
H	-1.75655	1.36638	0.133773
C	4.80701	-0.921985	0.234103
C	4.9857	-0.3105	-0.988722
N	5.85661	0.723574	-0.895316
C	6.21683	0.753486	0.380602
N	5.61123	-0.21869	1.10289
H	4.18521	-1.77925	0.537423
H	4.50183	-0.596933	-1.9367
H	6.92092	1.4663	0.839287
H	5.73142	-0.401804	2.12919
