18
  This energy is -1.9295 and Call times are: 180148
C	0.267859	-0.435291	-1.01251
C	0.786736	0.743632	-0.563866
C	0.219919	0.952941	0.730362
C	-0.595295	-0.116555	0.958353
O	-0.578142	-0.974375	-0.0956214
H	0.419489	-0.989952	-1.95305
H	1.49735	1.40002	-1.09139
H	0.403675	1.80388	1.40581
H	-1.23233	-0.379984	1.81861
C	3.67652	-1.0446	0.338475
C	3.60853	0.141822	1.0377
N	4.19981	1.14883	0.350074
C	4.63297	0.589251	-0.771474
N	4.34181	-0.732052	-0.825955
H	3.31076	-2.05548	0.579078
H	3.14343	0.289249	2.02603
H	5.16941	1.10109	-1.58664
H	4.57788	-1.39256	-1.60651
