18
  This energy is -1.0905 and Call times are: 26937
C	0.0121252	1.13304	-0.0497951
C	-0.856437	0.446161	0.746555
C	-0.568085	-0.937071	0.537649
C	0.45123	-0.973359	-0.367919
O	0.818131	0.281939	-0.737543
H	0.154972	2.21371	-0.214081
H	-1.62326	0.870937	1.41412
H	-1.06689	-1.798	1.01104
H	0.99529	-1.81731	-0.822878
C	5.65458	0.376104	-0.727257
C	6.66141	1.13339	-0.166931
N	7.46085	0.375875	0.622736
C	6.95191	-0.846697	0.552565
N	5.86179	-0.89847	-0.249016
H	4.83271	0.645034	-1.40972
H	6.82531	2.21277	-0.318301
H	7.33822	-1.74069	1.06809
H	5.28443	-1.74774	-0.465034
