18
  This energy is -0.6986 and Call times are: 72412
C	0.958613	-0.389955	-0.46411
C	-0.142333	-1.17655	-0.29217
C	-1.12965	-0.340381	0.312939
C	-0.544875	0.883368	0.457354
O	0.730522	0.871202	-0.0119282
H	1.95216	-0.605945	-0.890092
H	-0.24853	-2.23902	-0.564165
H	-2.15354	-0.625636	0.603388
H	-0.925073	1.83082	0.873321
C	5.84915	-0.0166389	1.0877
C	5.05617	-0.982459	0.50501
N	4.7175	-0.638074	-0.761171
C	5.29817	0.536926	-0.96322
N	5.99226	0.95443	0.121917
H	6.30648	0.0462647	2.08791
H	4.72234	-1.92161	0.97554
H	5.24758	1.13511	-1.88726
H	6.53586	1.84768	0.210641
