18
  This energy is -1.1613 and Call times are: 53543
C	0.660162	0.182601	-0.904016
C	0.302204	1.18166	-0.0472131
C	-0.518605	0.568096	0.947736
C	-0.589773	-0.751747	0.611102
O	0.124284	-1.00492	-0.517188
H	1.28337	0.187593	-1.81332
H	0.58754	2.24411	-0.109576
H	-0.996205	1.06023	1.81017
H	-1.10863	-1.60048	1.08617
C	5.1629	-0.126383	1.14018
C	3.92389	-0.279098	0.554789
N	3.98403	-0.05848	-0.780958
C	5.25551	0.230004	-1.02331
N	6.00687	0.202084	0.102867
H	5.49276	-0.224915	2.18661
H	2.98764	-0.544517	1.07232
H	5.69019	0.469444	-2.00716
H	7.03621	0.394074	0.172549
