18
  This energy is -0.6817 and Call times are: 107908
C	0.831663	-0.743929	-0.203242
C	1.07804	0.565819	0.0869885
C	-0.20147	1.17173	0.276317
C	-1.11679	0.178756	0.0850691
O	-0.503431	-0.997907	-0.208653
H	1.51048	-1.58438	-0.422551
H	2.06208	1.05609	0.160388
H	-0.406721	2.22519	0.525695
H	-2.21828	0.181363	0.129191
C	5.17368	-0.0559304	-0.336706
C	5.65219	-0.0644043	0.95639
N	7.00497	0.0135201	0.977321
C	7.36431	0.070121	-0.29794
N	6.29626	0.03144	-1.12941
H	4.14797	-0.104279	-0.735606
H	5.04557	-0.125349	1.87462
H	8.39598	0.140667	-0.678631
H	6.31898	0.0621547	-2.17812
