18
  This energy is -1.3719 and Call times are: 209177
C	-0.193648	0.337407	-1.06539
C	0.0864881	-0.959544	-0.749455
C	0.265611	-0.986919	0.667331
C	0.0791209	0.29572	1.0921
O	-0.202217	1.11789	0.0471659
H	-0.403155	0.825746	-2.03125
H	0.159654	-1.81149	-1.44438
H	0.50527	-1.86431	1.28929
H	0.118845	0.745969	2.09756
C	3.98929	-0.620748	-0.58524
C	3.76643	0.461045	0.240111
N	4.9293	0.933822	0.750719
C	5.86999	0.148314	0.244062
N	5.35386	-0.804658	-0.56775
H	3.2965	-1.25168	-1.16447
H	2.7874	0.908885	0.476312
H	6.95249	0.226713	0.434555
H	5.89086	-1.54295	-1.08525
