18
  This energy is -1.2086 and Call times are: 73171
C	-0.624184	-0.459126	0.828251
C	0.678203	-0.0971049	1.0102
C	1.11496	0.433945	-0.241738
C	0.040919	0.349561	-1.07821
O	-1.02985	-0.193453	-0.441341
H	-1.36037	-0.90979	1.51395
H	1.27179	-0.194276	1.9334
H	2.11452	0.83038	-0.482201
H	-0.0875604	0.6378	-2.13446
C	5.05878	-1.03824	0.119318
C	6.32961	-0.818751	-0.368513
N	6.63256	0.502129	-0.366061
C	5.55379	1.0998	0.121438
N	4.577	0.213961	0.429266
H	4.4824	-1.96596	0.263049
H	7.03332	-1.58981	-0.722204
H	5.42583	2.18357	0.274078
H	3.6326	0.438294	0.828063
