18
  This energy is -0.7673 and Call times are: 145779
C	0.795572	-0.438387	-0.679178
C	0.196447	-1.16475	0.307643
C	-0.733676	-0.280325	0.934359
C	-0.620827	0.908429	0.275191
O	0.30854	0.829937	-0.713306
H	1.57219	-0.705277	-1.41463
H	0.390068	-2.21773	0.56811
H	-1.4046	-0.511232	1.77735
H	-1.13839	1.87214	0.41175
C	4.5376	0.169163	0.0728594
C	5.52384	1.11886	0.235789
N	6.75576	0.575055	0.0836317
C	6.53462	-0.707132	-0.172717
N	5.21305	-1.00168	-0.189974
H	3.43953	0.241254	0.123655
H	5.36858	2.18671	0.460405
H	7.30428	-1.4742	-0.355628
H	4.78458	-1.94268	-0.369389
