18
  This energy is -0.9121 and Call times are: 95085
C	0.961703	-0.496025	-0.339834
C	0.562024	-0.494211	0.964247
C	-0.676573	0.216557	0.992593
C	-0.924443	0.586338	-0.296669
O	0.0657875	0.159462	-1.12385
H	1.85101	-0.923564	-0.831349
H	1.08677	-0.947879	1.82035
H	-1.30309	0.423543	1.87505
H	-1.75852	1.14776	-0.748744
C	6.64377	0.180434	-0.210554
C	6.01437	-1.03527	-0.046044
N	4.68848	-0.872178	0.181817
C	4.49606	0.439717	0.158753
N	5.64456	1.1181	-0.0743367
H	7.69688	0.436138	-0.408321
H	6.49321	-2.02715	-0.0876832
H	3.53438	0.956957	0.306638
H	5.75316	2.15987	-0.138976
