18
  This energy is -1.1687 and Call times are: 28286
C	0.282604	-1.00242	-0.449102
C	0.877366	-0.512518	0.676345
C	0.262689	0.752716	0.924285
C	-0.653431	0.924289	-0.0715365
O	-0.654756	-0.13795	-0.919273
H	0.435368	-1.94055	-1.00751
H	1.66948	-0.993829	1.27216
H	0.483464	1.44743	1.75056
H	-1.35593	1.7466	-0.284958
C	5.41075	-0.839708	-0.763818
C	4.16663	-0.260076	-0.632182
N	4.16422	0.674144	0.34952
C	5.40214	0.674077	0.825096
N	6.1921	-0.221459	0.186682
H	5.78297	-1.62229	-1.44393
H	3.2707	-0.49923	-1.22797
H	5.78387	1.30967	1.64029
H	7.20651	-0.409079	0.379107
