18
  This energy is -0.716 and Call times are: 172363
C	0.756128	-0.817112	0.216796
C	0.976498	0.488035	0.546041
C	-0.185523	1.20052	0.119212
C	-1.01341	0.267873	-0.433183
O	-0.454273	-0.969773	-0.382068
H	1.37384	-1.7199	0.353348
H	1.86792	0.907012	1.03993
H	-0.374196	2.28175	0.216367
H	-2.01253	0.356438	-0.890522
C	4.9519	0.157879	0.800563
C	5.30042	-1.02663	0.186872
N	6.32296	-0.843655	-0.68343
C	6.60773	0.449454	-0.609931
N	5.80876	1.09682	0.27106
H	4.18051	0.391308	1.55156
H	4.83236	-2.01	0.356477
H	7.39162	0.974404	-1.17929
H	5.8367	2.11922	0.505994
