18
  This energy is -1.1517 and Call times are: 192267
C	-0.249252	-1.10532	0.0504184
C	-0.385207	-0.276147	1.12483
C	0.0201318	1.01724	0.674317
C	0.368001	0.864264	-0.635629
O	0.20967	-0.425625	-1.03329
H	-0.443227	-2.18381	-0.0699339
H	-0.735763	-0.548032	2.13344
H	0.0463361	1.94755	1.26417
H	0.738016	1.5854	-1.38283
C	5.81278	0.255095	0.285916
C	4.93815	-0.541325	0.994351
N	3.73564	-0.618288	0.374224
C	3.86377	0.127552	-0.714779
N	5.09797	0.675877	-0.813256
H	6.8584	0.542606	0.479708
H	5.15324	-1.06178	1.94183
H	3.08531	0.306166	-1.47394
H	5.44435	1.30221	-1.58071
