18
  This energy is -1.2888 and Call times are: 194857
C	0.547692	-0.876837	-0.466467
C	-0.37683	-0.144856	-1.15191
C	-0.836897	0.855052	-0.241616
C	-0.152902	0.645831	0.919741
O	0.697068	-0.407879	0.800331
H	1.16039	-1.7437	-0.763781
H	-0.702187	-0.294072	-2.19401
H	-1.58988	1.63524	-0.437601
H	-0.18034	1.17024	1.88902
C	4.99471	-0.784389	-0.535914
C	3.9738	-0.0557374	-1.10859
N	3.38141	0.754515	-0.198053
C	4.03234	0.529379	0.935184
N	5.01434	-0.390534	0.783435
H	5.6856	-1.53044	-0.959743
H	3.65405	-0.100146	-2.16246
H	3.83089	1.01092	1.90563
H	5.66643	-0.737609	1.52881
