18
  This energy is -0.8791 and Call times are: 149157
C	-0.403406	-0.386362	0.987111
C	-0.692987	-0.983819	-0.204342
C	-0.0124818	-0.219382	-1.20067
C	0.632874	0.777729	-0.530102
O	0.405165	0.691022	0.806925
H	-0.706745	-0.62809	2.019
H	-1.32264	-1.87358	-0.365447
H	-0.0096087	-0.398607	-2.28785
H	1.27639	1.59964	-0.884497
C	6.03201	-0.533046	0.481989
C	5.66792	0.788861	0.62741
N	4.5379	1.06381	-0.0682556
C	4.20222	-0.0831567	-0.643063
N	5.07183	-1.07649	-0.341966
H	6.87821	-1.10637	0.892827
H	6.20037	1.54914	1.22183
H	3.32944	-0.25129	-1.29438
H	5.02377	-2.07113	-0.673095
