18
  This energy is -0.8299 and Call times are: 37966
C	-0.82022	-0.627067	0.469497
C	-1.08662	0.476486	-0.286529
C	0.183524	0.987373	-0.693759
C	1.11397	0.150917	-0.150637
O	0.518668	-0.840723	0.562998
H	-1.48613	-1.33543	0.989155
H	-2.0781	0.889338	-0.53274
H	0.372639	1.87509	-1.31849
H	2.21535	0.153404	-0.197599
C	5.489	-1.13157	-0.0889884
C	6.58247	-0.52571	-0.670705
N	6.63545	0.791654	-0.35725
C	5.57886	1.00225	0.415985
N	4.85581	-0.126511	0.607508
H	5.12865	-2.1721	-0.120323
H	7.33413	-1.01554	-1.31097
H	5.28769	1.96376	0.868709
H	3.97976	-0.218512	1.1779
