18
  This energy is -0.8838 and Call times are: 118429
C	0.619734	-0.068437	0.947443
C	1.17294	-0.163305	-0.295671
C	0.0893778	-0.0317574	-1.21692
C	-1.03033	0.131885	-0.455441
O	-0.724976	0.112028	0.86871
H	1.06923	-0.112925	1.95304
H	2.23729	-0.311094	-0.539458
H	0.146552	-0.0572741	-2.317
H	-2.08851	0.270432	-0.731667
C	4.86088	-0.567747	0.598858
C	4.99538	0.796922	0.454871
N	6.07724	1.10421	-0.301217
C	6.61186	-0.0653765	-0.625054
N	5.91501	-1.1041	-0.106357
H	4.11452	-1.17492	1.13536
H	4.33119	1.5653	0.882998
H	7.51348	-0.218514	-1.23976
H	6.13568	-2.12375	-0.219797
