18
  This energy is -1.2527 and Call times are: 126782
C	0.163282	1.11913	0.085396
C	0.271006	0.28143	1.15639
C	-0.00109526	-1.02876	0.656915
C	-0.251076	-0.876043	-0.675211
O	-0.155015	0.429207	-1.04142
H	0.287507	2.21081	-0.00430653
H	0.517366	0.558352	2.19404
H	-0.00765259	-1.96965	1.2303
H	-0.505453	-1.60736	-1.45989
C	4.4764	0.869232	0.789742
C	4.03661	0.971174	-0.513075
N	4.08067	-0.229953	-1.13906
C	4.54603	-1.07383	-0.22806
N	4.79989	-0.459429	0.951624
H	4.57866	1.62301	1.58655
H	3.68829	1.88988	-1.01258
H	4.72012	-2.15237	-0.371834
H	5.1722	-0.909461	1.82347
