18
  This energy is -1.0015 and Call times are: 55251
C	0.760375	-0.621811	0.567081
C	-0.511281	-0.4301	1.02152
C	-1.15419	0.394227	0.0482347
C	-0.218647	0.63348	-0.915039
O	0.956511	0.0206026	-0.614379
H	1.60919	-1.18665	0.986276
H	-0.952338	-0.829138	1.94906
H	-2.19282	0.761394	0.0711185
H	-0.264371	1.21561	-1.85007
C	4.39698	0.528833	-0.315237
C	5.32292	-0.0559114	-1.153
N	6.36095	-0.571009	-0.450381
C	6.08004	-0.306821	0.818445
N	4.90631	0.355018	0.952263
H	3.44345	1.03932	-0.524355
H	5.26058	-0.115358	-2.25183
H	6.69929	-0.575459	1.68942
H	4.46782	0.674819	1.85044
