18
  This energy is -1.1794 and Call times are: 204165
C	0.834704	0.648137	-0.411811
C	0.556726	-0.589932	-0.912099
C	-0.542567	-1.08369	-0.145367
C	-0.839309	-0.103758	0.755774
O	-0.00813257	0.961192	0.607323
H	1.59607	1.39515	-0.690272
H	1.07391	-1.10393	-1.73819
H	-1.04717	-2.05663	-0.258785
H	-1.6075	-0.0437532	1.54415
C	4.27752	-0.875294	-0.311407
C	4.44414	0.330332	-0.959363
N	5.35867	1.1036	-0.325175
C	5.75788	0.380442	0.712268
N	5.13527	-0.820898	0.764461
H	3.63083	-1.7393	-0.532397
H	3.92085	0.656079	-1.8731
H	6.50373	0.682593	1.46503
H	5.27864	-1.56846	1.48686
