18
  This energy is -0.9689 and Call times are: 2196
C	-1.06657	-0.0800706	0.377382
C	0.0119127	-0.218018	1.20092
C	1.16197	-0.0546212	0.369782
C	0.684742	0.168752	-0.888286
O	-0.674182	0.156582	-0.902086
H	-2.14969	-0.128013	0.57691
H	-0.00110232	-0.415071	2.28494
H	2.21792	-0.0997977	0.681261
H	1.20181	0.348161	-1.84521
C	5.98745	0.894287	0.335794
C	5.304	0.778197	-0.856081
N	4.60884	-0.383871	-0.909538
C	4.86007	-0.986405	0.244783
N	5.68627	-0.255882	1.03048
H	6.64489	1.68752	0.725772
H	5.30004	1.51212	-1.67839
H	4.46491	-1.96363	0.565891
H	6.03161	-0.51608	1.98667
