18
  This energy is -1.4557 and Call times are: 103808
C	0.924987	0.624789	0.20109
C	0.788121	-0.137091	-0.921932
C	-0.490331	-0.764984	-0.815024
C	-1.02185	-0.331371	0.363891
O	-0.171027	0.518079	0.997568
H	1.74261	1.27911	0.545496
H	1.51456	-0.246006	-1.74322
H	-0.952199	-1.45752	-1.53694
H	-1.98307	-0.550705	0.857049
C	4.12379	-0.384459	0.951454
C	4.17257	-0.988949	-0.286834
N	4.92999	-0.271166	-1.15147
C	5.34951	0.77464	-0.452245
N	4.8904	0.752023	0.821451
H	3.61477	-0.672972	1.88484
H	3.6748	-1.93014	-0.571855
H	5.99475	1.58686	-0.823972
H	5.08194	1.46449	1.56776
