18
  This energy is -0.703 and Call times are: 164742
C	-0.45352	-0.422951	-0.949649
C	-0.641503	-1.00256	0.270636
C	0.0751143	-0.191927	1.20308
C	0.63775	0.811482	0.47029
O	0.325288	0.686015	-0.846386
H	-0.815515	-0.698917	-1.95367
H	-1.22615	-1.90991	0.491951
H	0.156555	-0.345812	2.2911
H	1.27286	1.66343	0.763679
C	4.5446	0.431002	0.535304
C	4.90014	-0.896112	0.419092
N	6.06442	-1.03231	-0.260922
C	6.42978	0.205598	-0.565414
N	5.54623	1.1238	-0.107327
H	3.67859	0.915289	1.01387
H	4.33743	-1.75778	0.81373
H	7.33506	0.496297	-1.12237
H	5.61172	2.16506	-0.220194
