18
  This energy is -1.1891 and Call times are: 21689
C	0.781633	-0.821798	-0.0100081
C	0.953163	0.357517	-0.673461
C	-0.228246	1.12102	-0.425566
C	-1.01743	0.340873	0.367489
O	-0.416335	-0.849152	0.631193
H	1.42876	-1.70944	0.0825068
H	1.82425	0.659486	-1.27689
H	-0.455273	2.13266	-0.798575
H	-2.01411	0.515566	0.804926
C	5.7319	-1.07498	0.207281
C	6.31293	-0.0821695	-0.5529
N	5.53927	1.03019	-0.577745
C	4.4823	0.728596	0.164202
N	4.55138	-0.529541	0.660093
H	6.06389	-2.09695	0.449971
H	7.27652	-0.14856	-1.08388
H	3.62859	1.392	0.37707
H	3.84099	-0.999891	1.27278
