18
  This energy is -2.2427 and Call times are: 70558
C	-0.570788	0.359096	0.91195
C	-0.646787	-0.926295	0.462096
C	0.198597	-0.988846	-0.687483
C	0.716571	0.263843	-0.838638
O	0.257405	1.0999	0.129444
H	-1.05086	0.864354	1.76605
H	-1.23878	-1.74798	0.896236
H	0.392387	-1.86867	-1.32187
H	1.41276	0.682068	-1.58406
C	4.71375	-1.1595	-0.201182
C	5.80069	-0.311629	-0.17274
N	5.4198	0.962536	0.0879079
C	4.10157	0.905344	0.220659
N	3.62793	-0.352392	0.0552815
H	4.63859	-2.24392	-0.379819
H	6.85293	-0.596452	-0.33562
H	3.43419	1.75453	0.439106
H	2.6247	-0.655053	0.111682
