18
  This energy is -1.1776 and Call times are: 5415
C	0.311558	0.736168	-0.804605
C	-0.810575	0.911279	-0.0492717
C	-0.862414	-0.206185	0.83882
C	0.232617	-0.965514	0.547788
O	0.96083	-0.404949	-0.453453
H	0.750981	1.34359	-1.61281
H	-1.52967	1.74384	-0.111271
H	-1.62969	-0.4123	1.60229
H	0.599911	-1.91293	0.975273
C	4.9705	0.995449	-0.262106
C	4.57855	0.57143	0.989983
N	3.94322	-0.623795	0.92442
C	3.94103	-0.940058	-0.363445
N	4.54864	0.00439345	-1.12003
H	5.50205	1.90207	-0.592321
H	4.74281	1.10651	1.93949
H	3.5081	-1.85119	-0.806887
H	4.67441	-0.0146758	-2.1617
