18
  This energy is -0.7477 and Call times are: 155728
C	-0.7483	0.777399	0.349427
C	-0.187189	-0.130083	1.19914
C	0.688517	-0.925597	0.398877
C	0.585232	-0.434017	-0.869214
O	-0.287922	0.606298	-0.91777
H	-1.4784	1.58536	0.520886
H	-0.371467	-0.229332	2.28093
H	1.3182	-1.76427	0.73684
H	1.07359	-0.732931	-1.81124
C	5.30063	-0.683763	0.870671
C	4.59928	-0.263604	-0.239606
N	5.36938	0.5144	-1.03846
C	6.54401	0.576657	-0.426102
N	6.55322	-0.129484	0.729264
H	5.00682	-1.31685	1.72297
H	3.55139	-0.507897	-0.478556
H	7.43173	1.12526	-0.779974
H	7.36069	-0.234694	1.39121
