18
  This energy is -1.1378 and Call times are: 64353
C	-0.482983	0.908987	-0.476309
C	-1.02233	-0.340009	-0.573685
C	-0.139776	-1.20403	0.143721
C	0.860983	-0.406756	0.616164
O	0.667423	0.886774	0.246937
H	-0.816794	1.88236	-0.871744
H	-1.94874	-0.624362	-1.0981
H	-0.245851	-2.29149	0.28613
H	1.75517	-0.635588	1.21893
C	4.73541	0.867103	-0.794966
C	5.24397	0.897843	0.48627
N	5.02685	-0.276685	1.12647
C	4.38603	-1.03319	0.245747
N	4.18642	-0.388693	-0.928292
H	4.72565	1.62473	-1.59462
H	5.76366	1.74646	0.960202
H	4.03986	-2.06658	0.408567
H	3.70515	-0.772502	-1.77819
