18
  This energy is -0.6264 and Call times are: 194457
C	1.01986	0.441018	-0.227587
C	-0.0736334	1.21825	0.0185244
C	-1.15141	0.312139	0.258299
C	-0.621387	-0.938808	0.137544
O	0.703565	-0.87893	-0.158985
H	2.06502	0.702421	-0.46114
H	-0.116938	2.31919	0.0300616
H	-2.19649	0.570868	0.492704
H	-1.07584	-1.93816	0.237613
C	5.35728	0.0292243	-1.09006
C	5.07317	0.898242	-0.0579606
N	5.76235	0.569236	1.06154
C	6.47132	-0.499823	0.72523
N	6.26179	-0.864663	-0.561852
H	4.99199	-0.0148806	-2.12841
H	4.38325	1.75673	-0.101034
H	7.15977	-1.05474	1.38275
H	6.70411	-1.67423	-1.06208
