18
  This energy is -0.5682 and Call times are: 113337
C	-0.54541	0.697913	-0.708411
C	-1.16741	0.0930965	0.344055
C	-0.166226	-0.694959	0.98959
C	0.979202	-0.502145	0.274615
O	0.765934	0.345662	-0.765939
H	-0.920394	1.39127	-1.47905
H	-2.22515	0.191979	0.636486
H	-0.293367	-1.32857	1.88204
H	1.99727	-0.905286	0.402171
C	5.47696	0.352472	1.1005
C	5.03644	-0.806625	0.497523
N	5.48281	-0.893406	-0.779087
C	6.19752	0.207668	-0.967365
N	6.22441	0.991428	0.136531
H	5.31679	0.75444	2.11357
H	4.40453	-1.58184	0.96075
H	6.72255	0.489613	-1.89423
H	6.72018	1.91069	0.238629
