18
  This energy is -1.5475 and Call times are: 33958
C	1.02189	0.155303	-0.46692
C	0.816857	-0.702948	0.573147
C	-0.576583	-0.623573	0.876697
C	-1.10005	0.276175	-0.0046718
O	-0.137994	0.761847	-0.832674
H	1.93338	0.419908	-1.02766
H	1.57119	-1.32911	1.07613
H	-1.11744	-1.17596	1.66183
H	-2.1274	0.651222	-0.143051
C	4.64509	1.00316	0.266147
C	5.74236	0.857437	-0.55599
N	6.12157	-0.440941	-0.639217
C	5.26282	-1.09819	0.12837
N	4.35293	-0.271824	0.696537
H	4.07064	1.89422	0.56541
H	6.26721	1.66588	-1.09059
H	5.25487	-2.1851	0.309456
H	3.57343	-0.549471	1.34194
