18
  This energy is -1.258 and Call times are: 209975
C	-0.782042	0.739813	0.357055
C	-0.698322	-0.529284	0.849761
C	0.393823	-1.1436	0.16423
C	0.881086	-0.195673	-0.686877
O	0.17488	0.96077	-0.582355
H	-1.46843	1.57053	0.589506
H	-1.34116	-0.986923	1.6188
H	0.766126	-2.17224	0.296073
H	1.71431	-0.219719	-1.40827
C	4.48903	0.757872	-0.391212
C	5.69506	1.06876	0.200377
N	6.38183	-0.05251	0.528405
C	5.6048	-1.0552	0.141786
N	4.45211	-0.618381	-0.418637
H	3.68138	1.39727	-0.781607
H	6.08196	2.08204	0.39639
H	5.83142	-2.12859	0.245234
H	3.6778	-1.21452	-0.801159
