18
  This energy is -1.3899 and Call times are: 77698
C	-0.931177	0.221882	0.608341
C	-0.577588	0.96127	-0.481913
C	0.633452	0.382772	-0.970625
C	0.913006	-0.659059	-0.135873
O	-0.0320837	-0.77191	0.834221
H	-1.78717	0.300294	1.29855
H	-1.1156	1.82718	-0.900042
H	1.2211	0.710978	-1.84301
H	1.74206	-1.38557	-0.125662
C	5.9789	0.600272	1.01209
C	6.07843	1.12479	-0.259179
N	6.07357	0.143897	-1.19424
C	5.97142	-0.984849	-0.505674
N	5.91108	-0.762801	0.828734
H	5.95242	1.08438	2.00127
H	6.15366	2.19342	-0.518444
H	5.93648	-2.00177	-0.928614
H	5.82838	-1.49037	1.58044
