18
  This energy is -0.716 and Call times are: 95863
C	0.4072	0.816409	0.673844
C	-0.846761	0.867966	0.13971
C	-0.989366	-0.321087	-0.638707
C	0.190039	-0.994292	-0.511535
O	1.05452	-0.314084	0.286584
H	0.949102	1.51178	1.3357
H	-1.59614	1.66351	0.279808
H	-1.8713	-0.630756	-1.22214
H	0.53352	-1.95337	-0.932771
C	5.87907	-0.0249635	-0.782116
C	5.04473	-1.06848	-0.441397
N	4.14259	-0.68701	0.495156
C	4.41622	0.588311	0.734539
N	5.45508	1.0341	-0.0108795
H	6.71659	0.0368762	-1.49505
H	5.07754	-2.08979	-0.854566
H	3.88718	1.2428	1.44587
H	5.86033	2.00207	-0.00284599
