18
  This energy is -2.3881 and Call times are: 175558
C	-0.182248	1.11862	-0.0433097
C	0.294888	0.499028	1.0742
C	0.388313	-0.88721	0.74294
C	-0.0399778	-0.992356	-0.547752
O	-0.392375	0.22294	-1.04362
H	-0.411964	2.17662	-0.250966
H	0.554964	0.970837	2.03537
H	0.735227	-1.7039	1.39621
H	-0.139702	-1.86317	-1.21632
C	3.85696	-1.14622	-0.110481
C	4.72043	-0.404653	-0.888709
N	4.75885	0.88713	-0.48087
C	3.92239	0.946724	0.546462
N	3.35336	-0.253592	0.809188
H	3.57463	-2.21048	-0.144889
H	5.31639	-0.778567	-1.73716
H	3.68949	1.84406	1.14209
H	2.66054	-0.464136	1.56875
