18
  This energy is -0.5324 and Call times are: 21046
C	-0.419561	-0.972203	0.406438
C	-0.983767	0.238624	0.682019
C	-0.183421	1.20675	0.00209296
C	0.799213	0.502065	-0.628959
O	0.670339	-0.830105	-0.392899
H	-0.694953	-1.99421	0.714523
H	-1.87422	0.430765	1.30191
H	-0.329958	2.29875	-0.00999829
H	1.63742	0.827109	-1.26692
C	7.08242	0.440954	0.137928
C	6.75213	-0.865432	-0.15432
N	5.40887	-1.02191	-0.242072
C	4.90775	0.182824	-0.00516282
N	5.87648	1.09934	0.229689
H	8.05775	0.932301	0.282283
H	7.45899	-1.69788	-0.30343
H	3.83866	0.449454	0.00850151
H	5.73572	2.1175	0.441348
