18
  This energy is -1.141 and Call times are: 198989
C	0.94066	0.29906	0.55868
C	-0.0379209	-0.460191	1.1299
C	-1.04256	-0.621843	0.127559
C	-0.589211	0.0528942	-0.967694
O	0.620541	0.621433	-0.722184
H	1.90009	0.6724	0.952836
H	-0.0509972	-0.865731	2.15433
H	-1.98944	-1.17764	0.220322
H	-1.02763	0.201312	-1.9682
C	4.60789	-0.216518	1.15678
C	4.4799	-1.14181	0.142585
N	4.51198	-0.542555	-1.07248
C	4.65931	0.749582	-0.813056
N	4.72231	0.997314	0.5167
H	4.62508	-0.332079	2.25218
H	4.36498	-2.23105	0.265813
H	4.72677	1.55745	-1.5594
H	4.83654	1.93533	0.973131
