18
  This energy is -0.4994 and Call times are: 93552
C	0.727437	0.0153266	-0.870058
C	0.985081	0.6513	0.308726
C	-0.148913	0.40545	1.14163
C	-0.999418	-0.359056	0.398299
O	-0.480228	-0.606912	-0.832969
H	1.31476	-0.0684182	-1.79919
H	1.88355	1.235	0.565924
H	-0.304485	0.760629	2.17301
H	-1.98994	-0.784877	0.628069
C	5.31892	0.452428	0.108043
C	6.34995	0.947425	-0.662088
N	7.45775	0.174888	-0.550367
C	7.11527	-0.795679	0.285894
N	5.83549	-0.672706	0.710889
H	4.28854	0.809308	0.264541
H	6.31434	1.84815	-1.29634
H	7.76291	-1.62186	0.620884
H	5.33256	-1.31255	1.3734
