18
  This energy is -1.3477 and Call times are: 23291
C	0.0105443	0.82918	-0.77379
C	0.767506	-0.298293	-0.901024
C	0.485926	-1.09063	0.253544
C	-0.418249	-0.377402	0.984396
O	-0.71987	0.797687	0.37186
H	-0.095763	1.71528	-1.42092
H	1.45518	-0.547054	-1.72523
H	0.911871	-2.07587	0.502498
H	-0.916348	-0.593762	1.94374
C	4.90032	1.17029	-0.0737619
C	3.81804	0.460907	0.402243
N	4.04421	-0.873932	0.342565
C	5.26218	-0.992193	-0.168519
N	5.82033	0.212068	-0.436501
H	5.07509	2.25307	-0.176612
H	2.87804	0.888333	0.787669
H	5.79324	-1.93699	-0.367398
H	6.7725	0.383205	-0.843126
