18
  This energy is -1.338 and Call times are: 31022
C	-0.381269	0.429991	0.977825
C	-0.149862	-0.903309	0.807132
C	0.315502	-1.05067	-0.535194
C	0.327391	0.205583	-1.06628
O	-0.0951299	1.12221	-0.15618
H	-0.74496	1.00362	1.84612
H	-0.292558	-1.70283	1.55178
H	0.605359	-1.98717	-1.03823
H	0.61121	0.574168	-2.0657
C	6.50806	0.863809	-0.518835
C	6.36642	0.649786	0.835889
N	5.5972	-0.438704	1.08082
C	5.2629	-0.898203	-0.1174
N	5.78753	-0.147199	-1.11457
H	7.05244	1.63819	-1.08233
H	6.80549	1.26127	1.64097
H	4.63602	-1.78107	-0.321832
H	5.66817	-0.305015	-2.14515
