18
  This energy is -0.7797 and Call times are: 116602
C	-0.594706	-0.0271502	0.965395
C	-0.730402	0.97658	0.051893
C	0.170301	0.662197	-1.01113
C	0.776891	-0.505896	-0.653384
O	0.321677	-0.941182	0.550908
H	-1.08629	-0.203543	1.93621
H	-1.39781	1.85068	0.119811
H	0.340088	1.24408	-1.93128
H	1.53855	-1.11972	-1.16166
C	6.43007	-0.890316	0.243784
C	6.77245	0.431133	0.0496355
N	5.67801	1.18595	-0.212961
C	4.66054	0.336007	-0.181839
N	5.06223	-0.928318	0.0896742
H	7.04257	-1.77678	0.473058
H	7.78956	0.853427	0.0943323
H	3.60082	0.586341	-0.350861
H	4.44859	-1.77602	0.167888
