18
  This energy is -1.4513 and Call times are: 112522
C	-0.630748	-0.931294	0.145771
C	-0.961822	0.26949	0.701542
C	0.0593464	1.18248	0.296838
C	0.924297	0.459012	-0.470515
O	0.51831	-0.833893	-0.573389
H	-1.12359	-1.91653	0.186614
H	-1.83731	0.490185	1.33313
H	0.133027	2.25179	0.552262
H	1.85231	0.744107	-0.992778
C	4.11337	-0.69696	0.52968
C	5.19023	-1.09526	-0.233784
N	5.88738	-0.0266271	-0.690426
C	5.24546	1.0306	-0.212069
N	4.16877	0.678947	0.530007
H	3.33743	-1.27595	1.05524
H	5.47664	-2.13456	-0.463306
H	5.52098	2.08507	-0.374611
H	3.50303	1.33032	1.01349
