18
  This energy is -0.6787 and Call times are: 257
C	-0.141378	-0.505895	-1.00523
C	-1.15493	-0.381883	-0.100956
C	-0.595383	0.300026	1.02244
C	0.710703	0.532521	0.705495
O	1.00524	0.0470124	-0.529229
H	-0.108653	-0.960564	-2.00895
H	-2.19251	-0.735161	-0.213702
H	-1.11287	0.580576	1.95389
H	1.52198	1.02666	1.26487
C	6.89293	-0.62325	0.103628
C	6.75034	0.738793	0.263787
N	5.46466	1.12148	0.0712408
C	4.81212	0.00111036	-0.207311
N	5.62933	-1.07857	-0.199979
H	7.77476	-1.27886	0.181616
H	7.55212	1.45222	0.514825
H	3.73531	-0.0854864	-0.424576
H	5.353	-2.07305	-0.389469
