18
  This energy is -1.4553 and Call times are: 18480
C	0.992143	0.526604	-0.157295
C	0.699899	-0.670584	-0.741854
C	-0.620173	-1.00443	-0.310488
C	-1.01807	0.018227	0.499591
O	-0.0457885	0.961991	0.60438
H	1.8913	1.1627	-0.203676
H	1.34882	-1.25952	-1.40981
H	-1.19825	-1.90366	-0.57749
H	-1.95567	0.189819	1.05341
C	6.23768	-0.261842	-1.13911
C	5.67602	-1.06328	-0.167831
N	5.67843	-0.444465	1.03781
C	6.23946	0.736374	0.815326
N	6.5941	0.894542	-0.4819
H	6.40344	-0.427071	-2.21557
H	5.26909	-2.07693	-0.315397
H	6.41484	1.52308	1.5667
H	7.05313	1.73747	-0.90619
