18
  This energy is -1.2293 and Call times are: 75223
C	-0.821698	0.772049	-0.123101
C	0.0935187	0.834023	0.886311
C	0.949844	-0.295077	0.707541
C	0.482322	-0.947353	-0.395333
O	-0.599223	-0.309527	-0.915381
H	-1.669	1.42762	-0.383009
H	0.159033	1.59818	1.67743
H	1.81131	-0.580407	1.33249
H	0.826512	-1.86281	-0.903983
C	5.48354	-0.929127	0.425786
C	5.15655	-0.69034	-0.892242
N	4.48205	0.477597	-1.02447
C	4.39095	0.961525	0.206846
N	4.97952	0.149911	1.11704
H	6.0213	-1.76275	0.904773
H	5.39523	-1.33986	-1.75015
H	3.90383	1.90601	0.498206
H	5.04033	0.311786	2.1521
