18
  This energy is -1.7761 and Call times are: 81394
C	0.0979428	-0.687221	-0.896959
C	-0.68714	0.428012	-0.913527
C	-0.551255	1.02106	0.378737
C	0.304871	0.215879	1.07091
O	0.711234	-0.832231	0.307141
H	0.301985	-1.44918	-1.66705
H	-1.30042	0.796112	-1.75167
H	-1.03823	1.94039	0.741743
H	0.697984	0.27909	2.09888
C	3.73703	0.318276	-1.13129
C	3.83534	-0.965133	-0.636986
N	3.88711	-0.964547	0.717204
C	3.82117	0.314361	1.06169
N	3.72958	1.12753	-0.0171836
H	3.67394	0.700242	-2.16263
H	3.86984	-1.89151	-1.23321
H	3.83597	0.710821	2.08971
H	3.66518	2.17491	-0.00691653
