18
  This energy is -1.1433 and Call times are: 196852
C	0.0490664	1.07729	-0.351355
C	1.16342	0.369133	-0.00914008
C	0.700785	-0.926648	0.374316
C	-0.655438	-0.895941	0.232574
O	-1.07065	0.320192	-0.209728
H	-0.0785389	2.11318	-0.70617
H	2.20656	0.72368	-0.0251283
H	1.31391	-1.77652	0.714747
H	-1.42675	-1.663	0.4113
C	5.3229	1.15323	-0.0739476
C	4.82161	0.341797	-1.06965
N	4.68946	-0.936103	-0.638352
C	5.10719	-0.917516	0.620133
N	5.49964	0.319238	1.00744
H	5.55852	2.22924	-0.0588827
H	4.55291	0.655535	-2.09152
H	5.14665	-1.7812	1.30331
H	5.86831	0.59103	1.95162
