18
  This energy is -1.0171 and Call times are: 141754
C	-0.0769161	0.0245311	-1.13132
C	-0.692671	-0.931282	-0.3779
C	-0.365605	-0.63001	0.979443
C	0.421143	0.483311	0.935654
O	0.607789	0.896681	-0.345478
H	-0.0493053	0.191364	-2.22066
H	-1.31479	-1.76487	-0.741499
H	-0.683716	-1.18356	1.87748
H	0.903834	1.06934	1.73493
C	5.42746	-0.774691	-0.316625
C	4.29284	-1.03193	0.423384
N	3.56012	0.0940372	0.601774
C	4.2376	1.04618	-0.0251833
N	5.37101	0.572698	-0.595091
H	6.24384	-1.43314	-0.653547
H	3.9898	-2.0098	0.831773
H	3.94889	2.10711	-0.0979744
H	6.07302	1.12649	-1.14442
