18
  This energy is -0.6966 and Call times are: 119931
C	0.541993	-0.95092	-0.297316
C	-0.671318	-0.6085	-0.817892
C	-1.02155	0.634787	-0.208229
C	0.00864948	0.942369	0.631083
O	0.97225	-0.015097	0.589321
H	1.19381	-1.82221	-0.474061
H	-1.26057	-1.17464	-1.55706
H	-1.93635	1.22428	-0.38072
H	0.173143	1.80099	1.30263
C	4.75574	-0.208534	0.179642
C	5.44534	-0.344248	-1.00661
N	6.75182	-0.0189919	-0.852271
C	6.87227	0.317223	0.424865
N	5.69658	0.219372	1.08953
H	3.69736	-0.380444	0.432288
H	5.02358	-0.671026	-1.97107
H	7.79846	0.642636	0.925381
H	5.53294	0.429448	2.10459
