18
  This energy is -1.0935 and Call times are: 11710
C	0.0600461	0.288633	1.09521
C	-1.07742	0.447111	0.359384
C	-0.763137	-0.0226365	-0.952365
C	0.538632	-0.426702	-0.902331
O	1.05707	-0.243784	0.34056
H	0.28516	0.513096	2.15076
H	-2.0411	0.853988	0.705597
H	-1.4347	-0.0523859	-1.82541
H	1.20103	-0.855846	-1.67195
C	4.80529	-1.07985	0.455997
C	4.76033	0.11071	1.15004
N	4.63394	1.16366	0.306339
C	4.60062	0.628364	-0.906496
N	4.70057	-0.721535	-0.869459
H	4.9012	-2.12195	0.800034
H	4.81682	0.22879	2.24444
H	4.50432	1.17898	-1.85612
H	4.69866	-1.37138	-1.69345
