18
  This energy is -1.0238 and Call times are: 138046
C	-0.680111	0.824219	-0.380148
C	-0.907257	0.174874	0.797616
C	0.148125	-0.778658	0.928246
C	0.927034	-0.627826	-0.181224
O	0.435985	0.346765	-0.991196
H	-1.23131	1.63316	-0.887133
H	-1.73497	0.349807	1.50358
H	0.301382	-1.49002	1.75563
H	1.84429	-1.14563	-0.506452
C	4.74503	-1.10096	-0.412271
C	4.42895	-0.677499	0.861278
N	4.60816	0.659579	0.990189
C	5.03379	1.06407	-0.198865
N	5.13283	0.0397838	-1.07899
H	4.7222	-2.10002	-0.87584
H	4.07481	-1.3128	1.68943
H	5.28752	2.09904	-0.479394
H	5.44546	0.102637	-2.07877
