18
  This energy is -1.0388 and Call times are: 194072
C	0.461969	-0.996385	0.2832
C	-0.834525	-0.881988	-0.124712
C	-1.04071	0.506773	-0.387292
C	0.14799	1.11843	-0.11666
O	1.07698	0.215494	0.294053
H	1.05753	-1.87208	0.589321
H	-1.57173	-1.69409	-0.230124
H	-1.96956	0.985513	-0.736769
H	0.456667	2.17506	-0.175892
C	5.40466	0.285574	1.02414
C	5.71796	0.787718	-0.221191
N	4.93587	0.236837	-1.18108
C	4.14042	-0.603862	-0.533699
N	4.38396	-0.610727	0.798303
H	5.82191	0.495616	2.0218
H	6.4943	1.53763	-0.444271
H	3.36197	-1.23902	-0.986286
H	3.88946	-1.1887	1.52126
