18
  This energy is -1.0007 and Call times are: 136321
C	0.552442	0.933789	-0.330526
C	0.985521	-0.320835	-0.644748
C	0.0407535	-1.21845	-0.0600943
C	-0.886259	-0.433105	0.55979
O	-0.58941	0.88404	0.404805
H	0.962282	1.92938	-0.567332
H	1.8805	-0.587462	-1.22957
H	0.0575757	-2.3194	-0.101488
H	-1.79097	-0.686453	1.13647
C	6.09569	1.0206	-0.312662
C	6.74443	-0.164977	-0.0393839
N	5.86254	-1.14004	0.289312
C	4.67123	-0.561563	0.22021
N	4.75857	0.741147	-0.138827
H	6.47815	2.01037	-0.608663
H	7.83302	-0.334271	-0.073499
H	3.7023	-1.04581	0.422442
H	3.95988	1.41072	-0.261418
