18
  This energy is -0.7217 and Call times are: 120413
C	0.921994	0.030122	0.659865
C	0.864885	0.667051	-0.54489
C	-0.437348	0.399644	-1.06719
C	-1.06106	-0.377087	-0.135501
O	-0.245543	-0.612624	0.925851
H	1.72488	-0.0410236	1.4119
H	1.66002	1.26518	-1.01828
H	-0.852633	0.749222	-2.02606
H	-2.0701	-0.820303	-0.110193
C	6.86822	0.454617	0.651628
C	6.98993	-0.487295	-0.347938
N	5.78358	-0.783646	-0.889596
C	4.91677	-0.0284546	-0.228573
N	5.52159	0.736116	0.711218
H	7.61952	0.928699	1.30303
H	7.92659	-0.958352	-0.687986
H	3.82757	0.00379214	-0.392387
H	5.05383	1.41416	1.36138
