18
  This energy is -1.5587 and Call times are: 17870
C	-0.299613	-0.550963	-0.945025
C	-0.299827	0.810466	-0.862054
C	0.129958	1.12143	0.464108
C	0.354867	-0.077426	1.07447
O	0.0975593	-1.10953	0.228548
H	-0.55766	-1.23308	-1.77169
H	-0.575029	1.52415	-1.65516
H	0.254237	2.12415	0.903659
H	0.694824	-0.326871	2.09302
C	3.87848	-0.437242	1.06997
C	4.09505	0.885117	0.744999
N	4.32028	1.03128	-0.583316
C	4.24372	-0.195734	-1.0805
N	3.97912	-1.11655	-0.123592
H	3.66693	-0.926617	2.03397
H	4.09283	1.73634	1.44519
H	4.37324	-0.47628	-2.13821
H	3.8712	-2.15089	-0.264126
