18
  This energy is -0.7891 and Call times are: 11068
C	0.513751	0.101881	1.00602
C	-0.836358	-0.051553	0.887545
C	-1.09794	-0.143661	-0.513602
C	0.115418	-0.0383829	-1.12765
O	1.1109	0.112115	-0.214763
H	1.16209	0.213026	1.89064
H	-1.57406	-0.0954645	1.70484
H	-2.07877	-0.273186	-0.998663
H	0.399798	-0.0553963	-2.19259
C	6.2392	-0.11358	0.54061
C	5.54742	-1.09496	-0.137237
N	4.38274	-0.615224	-0.637103
C	4.35209	0.658932	-0.270753
N	5.449	1.00978	0.441489
H	7.20565	-0.134406	1.06889
H	5.86783	-2.14059	-0.274572
H	3.55019	1.37992	-0.49739
H	5.65773	1.95707	0.841909
