18
  This energy is -1.0145 and Call times are: 117115
C	0.626377	-0.629182	0.705821
C	0.104707	0.577179	1.07042
C	-0.610018	1.05491	-0.0702243
C	-0.462013	0.0983109	-1.03115
O	0.29021	-0.937341	-0.574429
H	1.24544	-1.35504	1.25822
H	0.212401	1.08017	2.04484
H	-1.16666	2.00195	-0.156021
H	-0.837417	0.0371705	-2.06584
C	5.50423	0.554346	-0.844217
C	4.1339	0.516761	-0.696085
N	3.77952	-0.215038	0.38807
C	4.92563	-0.629864	0.91053
N	5.99456	-0.192341	0.203742
H	6.14383	1.04329	-1.59613
H	3.39459	1.00457	-1.35206
H	5.03946	-1.25622	1.80995
H	7.00445	-0.385182	0.413999
