18
  This energy is -0.8899 and Call times are: 133570
C	-0.959818	0.0370289	0.603142
C	-0.519892	1.09603	-0.13534
C	0.701834	0.670145	-0.740422
C	0.900637	-0.611514	-0.318282
O	-0.104493	-1.01435	0.502967
H	-1.85364	-0.0925076	1.23524
H	-1.00686	2.07854	-0.243167
H	1.35045	1.2568	-1.41067
H	1.70673	-1.33363	-0.528091
C	6.19349	0.360546	0.65828
C	6.32259	-0.85649	0.0232203
N	7.49674	-0.934792	-0.648911
C	8.09377	0.22924	-0.431649
N	7.34817	1.04493	0.350857
H	5.38849	0.774241	1.28627
H	5.58956	-1.67947	0.0379675
H	9.07751	0.536451	-0.821659
H	7.60144	2.01406	0.663752
