18
  This energy is -0.7952 and Call times are: 53511
C	0.584775	-0.695772	-0.678484
C	-0.745818	-0.864862	-0.430881
C	-1.11613	0.192546	0.455052
C	0.020862	0.914457	0.670622
O	1.06935	0.386125	-0.0138822
H	1.29132	-1.26932	-1.30066
H	-1.40084	-1.65495	-0.831877
H	-2.11535	0.38531	0.877524
H	0.212153	1.81219	1.28114
C	6.55548	0.19787	0.103915
C	5.72843	-0.385894	1.04005
N	4.45271	-0.456927	0.588375
C	4.48821	0.0807255	-0.623357
N	5.73363	0.490904	-0.961392
H	7.63472	0.418156	0.119898
H	6.02936	-0.757093	2.03328
H	3.63125	0.198901	-1.30592
H	6.01884	0.945533	-1.86319
