18
  This energy is -0.7136 and Call times are: 116305
C	-0.688703	0.876751	0.208319
C	-1.00245	-0.101406	-0.688978
C	0.0957376	-1.01453	-0.671896
C	0.983632	-0.513768	0.234333
O	0.520745	0.640906	0.781577
H	-1.23411	1.78107	0.524543
H	-1.91562	-0.172764	-1.30146
H	0.20333	-1.93464	-1.26849
H	1.96625	-0.879977	0.574325
C	4.85388	-0.980531	0.0786527
C	5.21832	-0.144509	1.11277
N	5.96436	0.893307	0.662344
C	6.06237	0.701845	-0.646228
N	5.40962	-0.414772	-1.04708
H	4.25827	-1.90713	0.0646305
H	4.95632	-0.271572	2.17581
H	6.60029	1.34864	-1.35793
H	5.34011	-0.779955	-2.02844
