18
  This energy is -2.4889 and Call times are: 91419
C	-0.546948	0.990495	0.0785375
C	-0.223132	0.246007	1.17456
C	0.447322	-0.912508	0.676107
C	0.474026	-0.773702	-0.680504
O	-0.128756	0.382784	-1.06287
H	-1.06744	1.95717	-0.0208872
H	-0.435133	0.488346	2.22832
H	0.858503	-1.747	1.26657
H	0.886409	-1.41899	-1.47347
C	4.22008	0.168697	-1.06128
C	5.55943	0.23009	-0.739541
N	5.75724	-0.0168939	0.578178
C	4.54521	-0.230695	1.07204
N	3.58443	-0.129985	0.123173
H	3.69193	0.311649	-2.01739
H	6.38658	0.448171	-1.43461
H	4.30444	-0.464946	2.12151
H	2.55199	-0.255514	0.263112
