18
  This energy is -1.0608 and Call times are: 12439
C	0.376146	-0.998078	0.385688
C	1.19582	0.0810752	0.23095
C	0.36781	1.13266	-0.26774
C	-0.884748	0.603285	-0.373722
O	-0.898022	-0.697072	0.0211295
H	0.5752	-2.0223	0.741498
H	2.27523	0.131528	0.446371
H	0.677603	2.16055	-0.515849
H	-1.83778	1.04224	-0.711791
C	4.86454	-0.111956	-1.14766
C	4.79909	1.04366	-0.398383
N	5.13707	0.808655	0.892762
C	5.41115	-0.48782	0.944282
N	5.26157	-1.08746	-0.260561
H	4.66339	-0.302812	-2.2138
H	4.51405	2.04278	-0.766286
H	5.72598	-1.04921	1.83868
H	5.41821	-2.10217	-0.47759
