18
  This energy is -0.435 and Call times are: 152114
C	-0.769226	-0.0888389	-0.828734
C	0.337833	-0.883518	-0.771461
C	1.05137	-0.476369	0.39696
C	0.317358	0.531171	0.950548
O	-0.797848	0.78101	0.215084
H	-1.60057	-0.0442231	-1.55131
H	0.62334	-1.67684	-1.48085
H	2.00011	-0.891246	0.773615
H	0.47883	1.14229	1.85371
C	5.44339	-0.116492	0.183778
C	6.05848	0.74938	-0.695465
N	7.40639	0.617079	-0.649052
C	7.62666	-0.327278	0.255544
N	6.47478	-0.801325	0.786621
H	4.38017	-0.288076	0.415419
H	5.55383	1.46719	-1.36249
H	8.61195	-0.709747	0.567263
H	6.38458	-1.54824	1.51822
