18
  This energy is -1.2255 and Call times are: 170240
C	-1.04697	-0.365096	0.238653
C	-0.529579	0.774601	0.780658
C	0.789876	0.897043	0.247587
C	0.962305	-0.178641	-0.573111
O	-0.149493	-0.960058	-0.590542
H	-2.02768	-0.853313	0.361601
H	-1.02716	1.46029	1.48518
H	1.51872	1.69654	0.45662
H	1.81749	-0.496493	-1.19188
C	5.44739	-0.746441	-0.792314
C	4.71719	0.394365	-1.05023
N	4.35995	1.01624	0.0996283
C	4.8666	0.264081	1.0672
N	5.53139	-0.810582	0.580645
H	5.89815	-1.49229	-1.46616
H	4.44173	0.779875	-2.04539
H	4.78045	0.454247	2.14916
H	6.01809	-1.55149	1.14228
