18
  This energy is -1.2267 and Call times are: 201935
C	-0.431966	-0.528682	-0.905705
C	-0.535654	0.819755	-0.728673
C	0.120377	1.10334	0.507985
C	0.567044	-0.0968428	0.977488
O	0.238502	-1.10447	0.126746
H	-0.788244	-1.18963	-1.71284
H	-1.02502	1.54225	-1.40144
H	0.240786	2.08942	0.984681
H	1.12357	-0.363214	1.89104
C	3.88719	-0.107706	-0.367608
C	4.54827	-0.928959	0.521017
N	5.82204	-0.5105	0.718307
C	5.95067	0.566258	-0.0450206
N	4.81155	0.850252	-0.719814
H	2.85867	-0.13623	-0.761144
H	4.12897	-1.81593	1.02333
H	6.85713	1.18442	-0.147184
H	4.66117	1.64816	-1.38463
