18
  This energy is -1.1095 and Call times are: 156682
C	0.5863	-0.970784	-0.0152439
C	-0.758632	-0.926177	-0.237827
C	-1.12608	0.450432	-0.137612
C	0.0267425	1.12553	0.137363
O	1.08243	0.27323	0.215622
H	1.29634	-1.81379	0.00555531
H	-1.4251	-1.77729	-0.451181
H	-2.13409	0.878868	-0.257817
H	0.225513	2.19794	0.297601
C	4.61799	-1.06074	0.42472
C	4.16819	-0.492767	-0.748405
N	4.69683	0.742128	-0.927518
C	5.47164	0.939496	0.130468
N	5.4579	-0.11863	0.975318
H	4.40687	-2.03615	0.891146
H	3.47168	-0.951896	-1.46878
H	6.07126	1.8408	0.336251
H	5.98638	-0.204907	1.87783
