18
  This energy is -0.7688 and Call times are: 167098
C	-0.530225	0.248307	0.971394
C	-0.457466	-1.02325	0.483302
C	0.277378	-0.931772	-0.738072
C	0.588802	0.387604	-0.888525
O	0.103428	1.12281	0.14632
H	-0.998037	0.656024	1.88253
H	-0.878982	-1.93423	0.937755
H	0.538893	-1.75773	-1.41888
H	1.14345	0.922599	-1.67681
C	6.34653	-0.494128	-0.213803
C	5.69626	-0.425695	1.00012
N	4.50789	0.214963	0.882427
C	4.42126	0.542729	-0.399637
N	5.50524	0.137176	-1.10256
H	7.31607	-0.932765	-0.498615
H	6.06328	-0.827112	1.95877
H	3.58591	1.08011	-0.876751
H	5.67288	0.277009	-2.12901
