18
  This energy is -1.1064 and Call times are: 24061
C	-0.493888	-1.02058	0.0297382
C	0.861102	-0.864911	0.0178565
C	1.09247	0.544026	-0.0206123
C	-0.141553	1.12496	-0.0288419
O	-1.12198	0.184291	0.00158296
H	-1.12586	-1.92342	0.0571653
H	1.6214	-1.66226	0.0345097
H	2.06783	1.05628	-0.0397157
H	-0.451597	2.18252	-0.0549403
C	5.16775	0.128683	1.1694
C	5.66749	-0.9487	0.468936
N	5.54416	-0.762241	-0.867677
C	4.97009	0.426296	-0.995924
N	4.72305	1.00379	0.203682
H	5.09938	0.327924	2.25068
H	6.11483	-1.85722	0.90405
H	4.7084	0.92123	-1.94502
H	4.27761	1.93984	0.366995
