18
  This energy is -0.7323 and Call times are: 15261
C	-0.397673	0.915826	0.53807
C	0.871311	0.853786	0.0418801
C	0.994965	-0.437866	-0.555164
C	-0.209372	-1.05111	-0.371114
O	-1.07184	-0.238871	0.294789
H	-0.933659	1.71415	1.07719
H	1.64289	1.63884	0.0913406
H	1.88148	-0.853394	-1.06065
H	-0.573307	-2.04999	-0.662724
C	5.21937	-0.569767	-0.314357
C	6.51852	-0.985881	-0.514844
N	7.40204	-0.0820935	-0.0258989
C	6.65385	0.891005	0.476006
N	5.3309	0.643833	0.326676
H	4.25553	-1.03583	-0.573835
H	6.83417	-1.92204	-1.00353
H	7.02326	1.80726	0.9641
H	4.5407	1.2594	0.639598
