18
  This energy is -1.2165 and Call times are: 29312
C	0.672304	0.0502341	-0.912077
C	-0.387495	-0.804632	-0.832047
C	-0.978663	-0.575758	0.447896
C	-0.227933	0.398766	1.03703
O	0.784611	0.792785	0.220626
H	1.41296	0.223819	-1.70992
H	-0.719634	-1.52421	-1.59755
H	-1.86029	-1.0826	0.872094
H	-0.309827	0.890808	2.02011
C	5.22115	0.829469	0.420732
C	4.94816	0.564994	-0.904663
N	4.07088	-0.460565	-1.02765
C	3.80066	-0.830909	0.21672
N	4.46964	-0.0835017	1.12636
H	5.87521	1.57779	0.895879
H	5.36848	1.0958	-1.77439
H	3.12011	-1.64335	0.51841
H	4.42445	-0.180931	2.17025
