18
  This energy is -1.7345 and Call times are: 62022
C	-0.376563	1.01618	-0.334621
C	-0.308134	0.659188	0.980006
C	0.20785	-0.672571	0.997163
C	0.409182	-1.01183	-0.308494
O	0.0575952	0.00768607	-1.13553
H	-0.711354	1.94592	-0.823254
H	-0.592485	1.27217	1.85034
H	0.403101	-1.29745	1.88345
H	0.79233	-1.93511	-0.773255
C	4.66107	-0.775462	-0.684804
C	4.53032	0.579506	-0.904145
N	3.82056	1.16893	0.0884932
C	3.51217	0.183377	0.920475
N	3.99628	-1.00869	0.498348
H	5.16338	-1.56393	-1.2675
H	4.9354	1.14236	-1.76086
H	2.93377	0.279187	1.85348
H	3.88619	-1.93426	0.980494
