18
  This energy is -1.6682 and Call times are: 176616
C	0.132447	-0.5664	-0.973678
C	-0.528836	-1.09597	0.0952635
C	-0.486016	-0.0972155	1.11545
C	0.197655	0.954508	0.579869
O	0.582849	0.685269	-0.695336
H	0.347339	-0.973556	-1.97533
H	-0.999561	-2.09018	0.158967
H	-0.916939	-0.163094	2.12741
H	0.472127	1.93702	0.997708
C	4.60892	0.832312	-0.809838
C	5.83153	0.378101	-0.36257
N	5.68043	-0.588009	0.575679
C	4.36906	-0.732596	0.709964
N	3.67952	0.10147	-0.103951
H	4.34333	1.59835	-1.55562
H	6.81996	0.730183	-0.700057
H	3.86015	-1.43468	1.3899
H	2.63578	0.177013	-0.182339
