18
  This energy is -1.3724 and Call times are: 2893
C	0.130521	-1.00829	0.502716
C	0.294287	-0.835031	-0.840242
C	0.0494447	0.55008	-1.08851
C	-0.242327	1.10097	0.12465
O	-0.197412	0.163653	1.10772
H	0.217984	-1.90321	1.14046
H	0.560771	-1.60534	-1.58166
H	0.088349	1.06722	-2.0607
H	-0.495537	2.1333	0.416954
C	5.59538	0.398123	0.163524
C	4.57236	1.03991	-0.501823
N	3.44269	0.291346	-0.499536
C	3.76367	-0.810644	0.164704
N	5.05074	-0.794268	0.585146
H	6.63765	0.695621	0.360249
H	4.62914	2.02968	-0.983474
H	3.09449	-1.66121	0.371966
H	5.54045	-1.54657	1.12874
