18
  This energy is -1.0373 and Call times are: 182863
C	1.0252	-0.00927326	0.485053
C	0.0300632	0.827893	0.896425
C	-1.09	0.546503	0.0559472
C	-0.680436	-0.437777	-0.794832
O	0.608741	-0.789343	-0.546966
H	2.05998	-0.144877	0.840157
H	0.0797567	1.56921	1.7101
H	-2.08139	1.02627	0.0884072
H	-1.20411	-0.964909	-1.60917
C	4.95492	0.25605	1.14739
C	5.01104	1.14749	0.097003
N	4.91859	0.506446	-1.09338
C	4.80554	-0.777802	-0.782657
N	4.82223	-0.980453	0.55609
H	4.99855	0.408979	2.23746
H	5.11659	2.24173	0.176756
H	4.70763	-1.61166	-1.49633
H	4.74819	-1.90362	1.04959
