18
  This energy is -1.0703 and Call times are: 66161
C	-0.396996	-0.711672	-0.788872
C	0.879596	-0.785748	-0.314321
C	0.999601	0.261017	0.650043
C	-0.214252	0.882351	0.679671
O	-1.07926	0.301364	-0.192812
H	-0.933559	-1.31339	-1.54072
H	1.65861	-1.50533	-0.61337
H	1.89016	0.514398	1.24736
H	-0.58384	1.7371	1.26964
C	6.12432	0.694404	-0.472637
C	5.23871	-0.117338	-1.14933
N	4.42717	-0.77906	-0.289073
C	4.80788	-0.379353	0.916713
N	5.82801	0.50926	0.85932
H	6.91797	1.36824	-0.832653
H	5.17078	-0.237389	-2.24287
H	4.37364	-0.70578	1.87542
H	6.30277	0.969499	1.67421
