18
  This energy is -1.7109 and Call times are: 96389
C	-0.241252	0.290223	-1.06956
C	-0.82191	0.902412	0.00208543
C	-0.271506	0.270673	1.15884
C	0.596908	-0.671793	0.69195
O	0.627971	-0.673726	-0.666742
H	-0.360545	0.446892	-2.15422
H	-1.56343	1.71713	-0.0197982
H	-0.501434	0.498191	2.21215
H	1.24345	-1.39413	1.2168
C	4.0338	-0.5697	-0.688092
C	5.3762	-0.370888	-0.932154
N	5.95738	0.327768	0.0731414
C	4.97925	0.561494	0.937574
N	3.7998	0.0405116	0.523962
H	3.25445	-1.08504	-1.27168
H	5.9358	-0.719048	-1.81561
H	5.07175	1.10922	1.88924
H	2.88197	0.0916749	1.03015
