18
  This energy is -0.8931 and Call times are: 48482
C	-1.0471	0.416711	-0.127794
C	-0.260975	0.731892	0.941337
C	0.964068	0.0232918	0.748277
C	0.818406	-0.66235	-0.421787
O	-0.4038	-0.433716	-0.970378
H	-2.06888	0.727609	-0.400849
H	-0.517978	1.39668	1.78163
H	1.84573	0.0294448	1.40913
H	1.50115	-1.3374	-0.963466
C	6.41456	-0.820281	-0.220744
C	5.09609	-1.03434	0.121247
N	4.442	0.138447	0.30361
C	5.35123	1.0765	0.0756202
N	6.55672	0.549181	-0.244246
H	7.23437	-1.52216	-0.441683
H	4.60506	-2.01399	0.239671
H	5.18779	2.16492	0.129088
H	7.43276	1.08203	-0.467597
