18
  This energy is -0.836 and Call times are: 206859
C	0.626412	0.943408	-0.0631677
C	1.01053	-0.228756	-0.645284
C	-0.0230929	-1.16919	-0.349777
C	-0.947596	-0.488696	0.386832
O	-0.567104	0.802869	0.571483
H	1.10743	1.93472	-0.0288423
H	1.92955	-0.412698	-1.22465
H	-0.0648185	-2.22726	-0.654473
H	-1.90476	-0.805911	0.832326
C	4.86339	-0.389099	-0.972496
C	5.52342	0.811262	-0.815537
N	6.02386	0.933464	0.437916
C	5.6756	-0.186827	1.05621
N	4.97433	-1.01677	0.248124
H	4.34005	-0.826486	-1.83757
H	5.64751	1.59133	-1.58427
H	5.90823	-0.450625	2.1005
H	4.58862	-1.95888	0.502886
