18
  This energy is -1.0484 and Call times are: 14656
C	0.52713	0.855137	0.526569
C	-0.0407058	0.995141	-0.705638
C	-0.596839	-0.280592	-1.0271
C	-0.319755	-1.08756	0.0370406
O	0.366154	-0.41038	0.995147
H	1.06774	1.57039	1.16798
H	-0.0654585	1.90546	-1.32597
H	-1.13851	-0.556062	-1.94623
H	-0.552944	-2.14737	0.231163
C	5.20205	0.189092	-0.993416
C	3.92315	-0.314493	-0.883998
N	3.54121	-0.400474	0.413397
C	4.57921	0.048064	1.10621
N	5.60576	0.415872	0.303416
H	5.83241	0.39525	-1.87301
H	3.26919	-0.617325	-1.71795
H	4.6408	0.128472	2.20347
H	6.53263	0.800513	0.61039
