18
  This energy is -0.8793 and Call times are: 169097
C	1.00787	-0.201541	0.479565
C	0.791595	0.862143	-0.346373
C	-0.577774	0.776769	-0.743435
C	-1.07742	-0.331549	-0.125083
O	-0.122802	-0.94126	0.625898
H	1.90899	-0.53729	1.01855
H	1.52299	1.62987	-0.645963
H	-1.1192	1.46514	-1.41209
H	-2.08164	-0.786087	-0.138565
C	5.91501	0.00711161	1.10128
C	4.87026	-0.750333	0.615556
N	4.66138	-0.507319	-0.701192
C	5.57308	0.397445	-1.03109
N	6.35338	0.740176	0.0211702
H	6.36262	0.0741165	2.10561
H	4.26346	-1.46782	1.19163
H	5.71331	0.842976	-2.02912
H	7.14205	1.43244	0.0153314
