18
  This energy is -0.4861 and Call times are: 68558
C	-0.966128	-0.078943	0.588868
C	-0.880752	0.609253	-0.585641
C	0.47483	0.480223	-1.01677
C	1.09816	-0.275431	-0.0676519
O	0.233129	-0.625707	0.920293
H	-1.81134	-0.25185	1.27514
H	-1.69108	1.15319	-1.09711
H	0.924509	0.904231	-1.92896
H	2.13911	-0.627871	0.0187564
C	5.39729	-0.54387	-0.28961
C	5.71549	0.779022	-0.512884
N	6.95575	1.06818	-0.0495699
C	7.40526	-0.0709925	0.459196
N	6.50243	-1.07298	0.3388
H	4.4928	-1.12676	-0.525565
H	5.07237	1.53001	-0.999979
H	8.3883	-0.227046	0.931976
H	6.6216	-2.06409	0.662487
