18
  This energy is -0.7968 and Call times are: 15101
C	0.0736084	-1.09505	-0.286074
C	0.639152	-0.104967	-1.03458
C	0.334505	1.11706	-0.360808
C	-0.390311	0.765852	0.739952
O	-0.55919	-0.581262	0.801398
H	0.0508025	-2.18923	-0.418389
H	1.21326	-0.223301	-1.96758
H	0.625445	2.13458	-0.667544
H	-0.837004	1.372	1.54512
C	4.93427	0.995905	-0.419954
C	4.48429	-0.287688	-0.645903
N	5.25968	-1.19691	-0.00668173
C	6.18716	-0.480095	0.613465
N	6.03404	0.847518	0.39532
H	4.56212	1.97189	-0.769952
H	3.61404	-0.574027	-1.2587
H	7.00194	-0.876708	1.24042
H	6.63802	1.61717	0.774917
