18
  This energy is -1.0774 and Call times are: 51462
C	-0.199352	-1.10724	0.143777
C	1.03854	-0.621262	-0.159241
C	0.888703	0.795692	-0.258784
C	-0.427524	1.05051	-0.00780637
O	-1.10685	-0.100179	0.24008
H	-0.55977	-2.13507	0.313815
H	1.96431	-1.2023	-0.298678
H	1.6752	1.5317	-0.490744
H	-0.996425	1.99423	0.0237279
C	5.92655	-0.980841	0.381822
C	4.73837	-0.448928	0.836175
N	4.42755	0.690706	0.171995
C	5.41913	0.865127	-0.691115
N	6.34798	-0.116287	-0.603637
H	6.48345	-1.88331	0.680069
H	4.09981	-0.867047	1.63133
H	5.51474	1.69451	-1.41029
H	7.22255	-0.202234	-1.17722
