18
  This energy is -0.9482 and Call times are: 134558
C	-0.847021	0.611611	0.441462
C	0.266627	1.18726	-0.0959264
C	1.08942	0.107447	-0.539911
C	0.405938	-1.03274	-0.234642
O	-0.778806	-0.743578	0.365174
H	-1.74638	1.05069	0.903643
H	0.48663	2.26425	-0.172041
H	2.07421	0.180752	-1.02871
H	0.651412	-2.09613	-0.390221
C	4.59318	-0.400832	0.459064
C	4.86532	0.8915	0.0628809
N	6.12646	0.998789	-0.42141
C	6.63476	-0.222341	-0.32603
N	5.74931	-1.10215	0.198872
H	3.68878	-0.855882	0.89326
H	4.17428	1.74841	0.117804
H	7.6502	-0.527514	-0.625986
H	5.91244	-2.12386	0.374225
