18
  This energy is -1.0738 and Call times are: 188802
C	-0.827174	-0.725733	-0.274765
C	-0.581671	-0.351869	1.01377
C	0.518254	0.557383	0.954267
C	0.847802	0.658885	-0.365381
O	0.0364214	-0.11803	-1.13028
H	-1.5771	-1.40785	-0.707862
H	-1.12103	-0.683147	1.91568
H	1.00127	1.07125	1.80087
H	1.62831	1.2419	-0.881275
C	4.9691	0.33409	1.11574
C	4.46093	1.10247	0.0898308
N	4.40332	0.397672	-1.06622
C	4.87396	-0.80338	-0.758658
N	5.22864	-0.891987	0.545161
H	5.15811	0.565302	2.1761
H	4.13482	2.15278	0.163085
H	4.98051	-1.65485	-1.44994
H	5.62569	-1.73421	1.02917
