18
  This energy is -0.8116 and Call times are: 172651
C	0.08407	-1.11872	0.16676
C	1.07792	-0.251673	0.514429
C	0.607501	1.0476	0.152876
C	-0.632288	0.859824	-0.383815
O	-0.967971	-0.457115	-0.383246
H	0.00498496	-2.21452	0.257405
H	2.04526	-0.501934	0.978894
H	1.13759	2.005	0.28128
H	-1.36592	1.57183	-0.796235
C	4.94228	0.528245	0.43454
C	5.37192	-0.754759	0.699968
N	6.51461	-1.03624	0.0279977
C	6.7928	0.0679452	-0.651718
N	5.87449	1.04031	-0.440083
H	4.06828	1.09423	0.794157
H	4.87787	-1.48238	1.3643
H	7.6564	0.218389	-1.3194
H	5.87292	2.00121	-0.861895
