18
  This energy is -0.9568 and Call times are: 90869
C	0.592452	0.71593	0.650266
C	0.746854	0.660877	-0.703803
C	-0.157199	-0.346541	-1.15978
C	-0.784249	-0.818174	-0.0440975
O	-0.338651	-0.180529	1.07029
H	1.07924	1.34101	1.4168
H	1.42895	1.26871	-1.31974
H	-0.315414	-0.675099	-2.19954
H	-1.55537	-1.59482	0.0879912
C	4.46607	-0.192788	-0.528117
C	5.60816	-0.957006	-0.641033
N	6.61562	-0.443323	0.105731
C	6.10049	0.635466	0.679737
N	4.80703	0.829476	0.32915
H	3.4681	-0.30047	-0.981999
H	5.72327	-1.86983	-1.24795
H	6.62641	1.31904	1.36557
H	4.18284	1.60993	0.649363
