18
  This energy is -0.8908 and Call times are: 191402
C	-0.53819	-0.962748	0.264326
C	-0.355037	0.0432073	1.16703
C	0.352371	1.06989	0.470172
C	0.539057	0.600691	-0.796862
O	0.00153098	-0.639272	-0.94028
H	-1.02969	-1.94538	0.354402
H	-0.684986	0.0605272	2.21819
H	0.679953	2.0415	0.8736
H	1.03184	1.04658	-1.6764
C	4.26396	0.656887	-0.278234
C	5.34828	1.04135	0.481743
N	6.24357	0.0311406	0.601926
C	5.71666	-0.976203	-0.0808957
N	4.52323	-0.648807	-0.630555
H	3.35643	1.20186	-0.583105
H	5.50066	2.02957	0.945494
H	6.1626	-1.97548	-0.210589
H	3.91191	-1.27106	-1.21395
