18
  This energy is -0.8025 and Call times are: 168090
C	-0.0273824	-0.175763	-1.12016
C	1.06468	-0.476047	-0.360162
C	0.719538	-0.118262	0.97886
C	-0.552973	0.369074	0.918915
O	-1.02471	0.341323	-0.35533
H	-0.217441	-0.281387	-2.20089
H	2.01769	-0.906333	-0.707627
H	1.35173	-0.215989	1.87601
H	-1.22327	0.761274	1.70131
C	5.10151	0.63782	-0.854275
C	5.01849	-0.728133	-0.685675
N	5.71551	-1.12908	0.405159
C	6.22898	-0.0160996	0.911358
N	5.88757	1.07638	0.18782
H	4.6712	1.30652	-1.61665
H	4.46815	-1.43153	-1.33158
H	6.86222	0.0557855	1.81029
H	6.16819	2.06848	0.383416
