18
  This energy is -0.7924 and Call times are: 52451
C	-0.129295	-1.05611	0.39284
C	-1.05764	-0.0794236	0.604141
C	-0.545414	1.09146	-0.0336558
C	0.65072	0.726921	-0.578402
O	0.920663	-0.581231	-0.327641
H	-0.0991512	-2.11469	0.699012
H	-2.00781	-0.174014	1.15398
H	-1.01948	2.08519	-0.0766436
H	1.39357	1.2975	-1.15966
C	4.60313	-0.386389	-0.180728
C	5.76987	-0.968118	-0.629561
N	6.85362	-0.255333	-0.237235
C	6.36109	0.764709	0.452365
N	5.00887	0.730491	0.515071
H	3.54801	-0.67842	-0.303142
H	5.84909	-1.88937	-1.22945
H	6.94591	1.56556	0.93285
H	4.38787	1.42286	1.00112
