18
  This energy is -1.1904 and Call times are: 127364
C	0.892015	-0.558349	0.423033
C	1.01024	0.662948	-0.172645
C	-0.310718	1.03383	-0.569681
C	-1.11955	0.00643583	-0.181577
O	-0.401749	-0.974493	0.426332
H	1.64235	-1.22547	0.878227
H	1.93489	1.24434	-0.317885
H	-0.613881	1.95995	-1.08396
H	-2.20719	-0.144635	-0.27882
C	5.77851	0.584511	-0.763585
C	5.01829	-0.536446	-1.02178
N	4.36073	-0.947508	0.089595
C	4.71168	-0.0848432	1.03366
N	5.56528	0.858065	0.569041
H	6.43428	1.18682	-1.41222
H	4.93249	-1.05597	-1.99007
H	4.37298	-0.0973584	2.08217
H	5.98475	1.64717	1.11915
