18
  This energy is -1.511 and Call times are: 66193
C	-0.122915	-1.11603	0.160522
C	-0.683994	-0.464188	-0.898092
C	-0.310203	0.906985	-0.755673
C	0.446298	0.972002	0.377399
O	0.570987	-0.254306	0.94979
H	-0.14326	-2.17672	0.460165
H	-1.29936	-0.904734	-1.69893
H	-0.578135	1.74093	-1.42413
H	0.946046	1.81917	0.875205
C	5.18892	-0.251524	0.729145
C	4.7463	1.00275	0.365783
N	3.70032	0.922249	-0.492096
C	3.49482	-0.377022	-0.660298
N	4.36669	-1.12654	0.0549973
H	6.00365	-0.572639	1.39746
H	5.16294	1.96434	0.707256
H	2.71954	-0.834158	-1.29606
H	4.40839	-2.17456	0.089469
