18
  This energy is -0.9605 and Call times are: 177290
C	-0.306519	0.195226	-1.0744
C	-0.935794	0.783512	-0.0169
C	-0.27467	0.296434	1.15177
C	0.700247	-0.546501	0.70526
O	0.695193	-0.620234	-0.651777
H	-0.47462	0.273711	-2.16106
H	-1.78077	1.48962	-0.0558958
H	-0.505136	0.549807	2.19904
H	1.45204	-1.14574	1.24469
C	5.06955	1.07897	-0.0208048
C	4.56194	0.376599	-1.09325
N	4.10073	-0.837961	-0.707721
C	4.32137	-0.888872	0.598935
N	4.90385	0.242948	1.06076
H	5.52187	2.08114	0.0470017
H	4.52023	0.724452	-2.13829
H	4.07591	-1.73098	1.26589
H	5.17717	0.445099	2.05358
