18
  This energy is -1.2659 and Call times are: 5561
C	0.291459	0.956081	0.536062
C	-0.688298	0.12822	0.999847
C	-0.761429	-0.95159	0.0677622
C	0.180095	-0.688262	-0.883324
O	0.832607	0.472877	-0.613149
H	0.691866	1.90582	0.927113
H	-1.29832	0.264295	1.90729
H	-1.43942	-1.81919	0.10884
H	0.478748	-1.24097	-1.78918
C	4.42122	0.385619	-0.880711
C	4.04629	-0.454788	0.146072
N	5.08271	-0.69234	0.986249
C	6.09677	-0.00192964	0.482605
N	5.74851	0.665061	-0.643198
H	3.8563	0.791074	-1.73511
H	3.0465	-0.893984	0.295706
H	7.11595	0.0502601	0.898259
H	6.37099	1.27824	-1.2244
