18
  This energy is -1.245 and Call times are: 96549
C	-0.139493	-0.979419	0.55469
C	-1.11856	-0.434645	-0.22314
C	-0.573857	0.778286	-0.74488
C	0.689987	0.867642	-0.239821
O	0.97199	-0.19736	0.555953
H	-0.110401	-1.90611	1.15106
H	-2.12353	-0.845695	-0.410682
H	-1.07253	1.49465	-1.41738
H	1.47698	1.62863	-0.369406
C	4.98198	0.462049	0.969177
C	5.06243	0.961141	-0.313624
N	4.38845	0.174321	-1.18722
C	3.89176	-0.809153	-0.449179
N	4.22178	-0.680702	0.857793
H	5.39801	0.827033	1.92167
H	5.59472	1.87487	-0.62446
H	3.27938	-1.64905	-0.81498
H	3.95028	-1.32825	1.63768
