18
  This energy is -0.9608 and Call times are: 130771
C	-0.657838	-0.893578	0.234877
C	0.522588	-0.666107	0.879257
C	1.05055	0.535404	0.315565
C	0.146144	0.936092	-0.623517
O	-0.903483	0.0750656	-0.686209
H	-1.40442	-1.69796	0.338966
H	0.976049	-1.28257	1.672
H	1.99474	1.03574	0.584362
H	0.134161	1.8035	-1.30375
C	4.95133	0.801129	0.665014
C	5.97197	-0.0396616	1.05553
N	6.36836	-0.835	0.0323911
C	5.59656	-0.488931	-0.988976
N	4.72553	0.49363	-0.658107
H	4.38848	1.57085	1.21663
H	6.42944	-0.0866542	2.05721
H	5.62724	-0.922878	-2.00139
H	4.01381	0.936762	-1.28925
