18
  This energy is -0.9632 and Call times are: 37422
C	-0.790225	-0.390239	0.713904
C	0.190681	0.470797	1.1099
C	0.978745	0.72739	-0.0533852
C	0.409845	0.000503364	-1.05756
O	-0.671625	-0.688142	-0.606778
H	-1.62043	-0.857634	1.26848
H	0.343923	0.883813	2.11987
H	1.86449	1.37891	-0.124685
H	0.676152	-0.109869	-2.12158
C	5.52648	0.939801	-0.565667
C	4.63612	0.941273	0.487133
N	4.36035	-0.321108	0.895619
C	5.07692	-1.10275	0.0992607
N	5.79718	-0.390039	-0.798989
H	5.97177	1.7635	-1.14599
H	4.18776	1.83059	0.959293
H	5.11121	-2.2037	0.130558
H	6.43945	-0.7768	-1.53326
