18
  This energy is -1.2119 and Call times are: 95575
C	-0.285607	0.643572	-0.889182
C	0.831682	-0.138729	-0.88258
C	0.848007	-0.786372	0.390373
C	-0.260747	-0.342664	1.04928
O	-0.964679	0.531304	0.282684
H	-0.701938	1.31718	-1.65611
H	1.57026	-0.248694	-1.69283
H	1.60176	-1.49832	0.763322
H	-0.654364	-0.570187	2.05355
C	4.90536	-1.17415	0.0802777
C	4.44827	-0.41923	-0.979115
N	4.59348	0.905601	-0.73366
C	5.13859	0.972319	0.473415
N	5.34623	-0.255143	1.00616
H	4.94673	-2.26396	0.235645
H	4.0163	-0.806765	-1.91617
H	5.40621	1.89435	1.01423
H	5.76355	-0.466487	1.94554
