18
  This energy is -0.9554 and Call times are: 128098
C	0.656344	-0.868518	-0.31826
C	0.842128	0.398157	-0.788783
C	-0.164608	1.19792	-0.166702
C	-0.876722	0.349362	0.629051
O	-0.389113	-0.916656	0.548754
H	1.19338	-1.80973	-0.520674
H	1.61098	0.73549	-1.50235
H	-0.331512	2.27862	-0.302045
H	-1.74046	0.520941	1.2922
C	6.08779	0.703372	0.807724
C	6.74683	-0.0425096	-0.146465
N	5.87211	-0.738234	-0.912847
C	4.67497	-0.425151	-0.435914
N	4.75173	0.440937	0.602156
H	6.46251	1.37978	1.59232
H	7.83781	-0.0911183	-0.295649
H	3.7091	-0.801539	-0.809632
H	3.94683	0.837052	1.14666
