18
  This energy is -0.8649 and Call times are: 142042
C	-0.494603	-0.979311	0.287607
C	0.737799	-0.620348	0.748805
C	1.01335	0.657836	0.173969
C	-0.0749939	0.967118	-0.587758
O	-1.00572	-0.0215298	-0.529967
H	-1.10851	-1.87758	0.46504
H	1.38765	-1.19773	1.42588
H	1.91932	1.26852	0.316736
H	-0.305497	1.84731	-1.21015
C	4.7113	-0.22858	-0.384145
C	5.58454	-1.11798	0.205393
N	6.75519	-0.514497	0.524616
C	6.60874	0.744496	0.134599
N	5.39344	0.967088	-0.419547
H	3.68689	-0.357593	-0.768182
H	5.39087	-2.1843	0.406121
H	7.35985	1.54498	0.231004
H	5.03845	1.87711	-0.803084
