18
  This energy is -0.9468 and Call times are: 152882
C	0.00575281	0.766659	0.835824
C	-0.867707	0.832466	-0.209696
C	-0.568492	-0.290252	-1.04041
C	0.461401	-0.943025	-0.4292
O	0.824837	-0.311404	0.717962
H	0.143856	1.41701	1.71516
H	-1.64476	1.59511	-0.378955
H	-1.06743	-0.571164	-1.98182
H	1.01583	-1.85483	-0.705728
C	5.98931	0.156808	-0.417025
C	4.97632	1.09133	-0.37636
N	3.85145	0.569175	0.170029
C	4.16542	-0.684516	0.467198
N	5.44341	-0.981686	0.132538
H	7.02546	0.219285	-0.785848
H	5.03695	2.133	-0.731481
H	3.49733	-1.42803	0.930972
H	5.92641	-1.90369	0.266237
