18
  This energy is -0.9208 and Call times are: 14228
C	1.09804	0.0498754	0.279676
C	0.125718	-0.249094	1.18829
C	-1.10684	-0.215385	0.467334
C	-0.778911	0.101206	-0.818203
O	0.563478	0.266759	-0.950858
H	2.19208	0.138411	0.382075
H	0.262705	-0.471093	2.25883
H	-2.11551	-0.406053	0.867745
H	-1.39985	0.236644	-1.71895
C	5.28341	-0.212489	1.15455
C	5.65615	-1.05535	0.128983
N	5.41987	-0.488995	-1.07929
C	4.90251	0.7007	-0.804346
N	4.79982	0.914782	0.528776
H	5.32662	-0.33113	2.2489
H	6.09134	-2.06199	0.239231
H	4.58154	1.45446	-1.54126
H	4.42352	1.7755	0.996557
