18
  This energy is -0.8954 and Call times are: 77430
C	0.00834623	0.413863	1.05596
C	-0.61605	-0.755434	0.734636
C	-0.408227	-0.937398	-0.666726
C	0.324821	0.136766	-1.07805
O	0.588262	0.972227	-0.0390019
H	0.110717	0.948598	2.01451
H	-1.16765	-1.42287	1.41608
H	-0.766654	-1.77397	-1.28784
H	0.716357	0.418317	-2.06935
C	5.78829	-0.854252	0.184265
C	5.72972	0.368574	0.818624
N	4.6908	1.10786	0.359686
C	4.10707	0.346554	-0.555904
N	4.73151	-0.846473	-0.69855
H	6.48399	-1.70119	0.294894
H	6.41848	0.730646	1.59924
H	3.21946	0.613768	-1.15169
H	4.46199	-1.61845	-1.35633
