18
  This energy is -1.6486 and Call times are: 26617
C	-0.636168	0.723871	-0.598082
C	-0.350234	0.920547	0.720984
C	0.461516	-0.186871	1.11444
C	0.599971	-0.962514	0.00107301
O	-0.0639108	-0.421364	-1.05412
H	-1.22773	1.31741	-1.31433
H	-0.678059	1.76113	1.35347
H	0.888206	-0.375621	2.11264
H	1.13788	-1.90984	-0.167723
C	4.6214	-0.114011	-1.09294
C	4.26247	1.05858	-0.462585
N	3.81634	0.820675	0.794743
C	3.89818	-0.494505	0.943831
N	4.37789	-1.10327	-0.166516
H	5.01958	-0.308029	-2.10157
H	4.31744	2.072	-0.892492
H	3.61998	-1.06366	1.84544
H	4.53449	-2.13271	-0.296841
