18
  This energy is -1.2696 and Call times are: 161124
C	0.725937	-0.785528	0.377308
C	-0.00469866	-0.953413	-0.762148
C	-0.788657	0.2323	-0.902189
C	-0.467882	1.02009	0.164052
O	0.45564	0.41415	0.955861
H	1.46262	-1.43657	0.876008
H	0.00721295	-1.82481	-1.43641
H	-1.50543	0.463017	-1.70662
H	-0.822003	2.01885	0.467898
C	4.60696	0.778625	-0.876011
C	5.11208	-0.503906	-0.842568
N	4.80003	-1.12173	0.322519
C	4.10398	-0.225892	1.00925
N	3.96021	0.936319	0.329408
H	4.6602	1.56406	-1.6466
H	5.69608	-0.994514	-1.63824
H	3.67611	-0.368809	2.01461
H	3.45276	1.79411	0.657964
