18
  This energy is -0.5784 and Call times are: 141113
C	0.721458	0.795819	0.364104
C	0.226926	-0.173232	1.18675
C	-0.633719	-0.973492	0.37497
C	-0.58914	-0.422823	-0.872086
O	0.233629	0.658586	-0.896929
H	1.41829	1.62904	0.55233
H	0.446199	-0.310719	2.25779
H	-1.21441	-1.85481	0.691457
H	-1.08981	-0.703088	-1.81338
C	6.70435	-0.302494	0.533729
C	5.75858	-1.15543	0.0053726
N	4.72538	-0.464862	-0.535101
C	5.02902	0.811631	-0.34277
N	6.21259	0.961879	0.297672
H	7.66064	-0.499224	1.04398
H	5.80322	-2.25673	0.00446537
H	4.4201	1.67678	-0.650927
H	6.66873	1.86875	0.563713
