18
  This energy is -0.9871 and Call times are: 210296
C	0.485762	-1.00208	-0.215086
C	-0.236121	-0.324011	-1.15289
C	-0.678698	0.874505	-0.514294
C	-0.188198	0.823025	0.757372
O	0.525399	-0.31616	0.957495
H	1.01423	-1.96862	-0.257398
H	-0.436823	-0.636473	-2.19028
H	-1.29077	1.67605	-0.958116
H	-0.275535	1.52411	1.6036
C	4.27795	-0.536363	0.229807
C	4.46382	0.600517	-0.527886
N	5.77418	0.94162	-0.583807
C	6.39883	0.0198563	0.136455
N	5.54025	-0.893595	0.648338
H	3.36711	-1.09775	0.492045
H	3.67591	1.18075	-1.03521
H	7.4838	-0.0335282	0.321464
H	5.78879	-1.71706	1.2495
