18
  This energy is -0.6751 and Call times are: 50771
C	1.00017	-0.0916433	0.526936
C	-0.0167965	-0.977371	0.730994
C	-1.09327	-0.53415	-0.0965758
C	-0.639097	0.583297	-0.733294
O	0.637535	0.868096	-0.364359
H	2.01671	-0.0355639	0.949719
H	-0.00963042	-1.85481	1.39743
H	-2.08668	-0.999622	-0.199359
H	-1.12036	1.25607	-1.46199
C	6.44439	0.904127	0.390404
C	5.08192	0.740165	0.524407
N	4.67099	-0.419153	-0.0444789
C	5.77433	-0.972297	-0.529558
N	6.87024	-0.212983	-0.292894
H	7.11856	1.70983	0.721876
H	4.38806	1.43761	1.02138
H	5.83644	-1.93236	-1.06683
H	7.85644	-0.43328	-0.575984
