18
  This energy is -1.3793 and Call times are: 114637
C	0.905445	0.683056	0.00205322
C	0.739302	-0.306779	-0.921525
C	-0.500816	-0.937997	-0.599361
C	-0.983017	-0.278167	0.492647
O	-0.136967	0.714899	0.873474
H	1.7107	1.42231	0.14461
H	1.42158	-0.566386	-1.74687
H	-0.971214	-1.78432	-1.12525
H	-1.90327	-0.417189	1.08346
C	5.0011	-1.0294	-0.276618
C	6.33783	-0.797223	-0.0308965
N	6.562	0.50756	0.25859
C	5.36886	1.08264	0.192709
N	4.39484	0.197855	-0.126695
H	4.45652	-1.9504	-0.538812
H	7.14454	-1.5478	-0.0573045
H	5.15188	2.14847	0.369263
H	3.37259	0.406916	-0.238776
