18
  This energy is -1.3003 and Call times are: 185434
C	-0.136796	-0.337241	-1.07422
C	-1.18306	-0.217307	-0.207437
C	-0.618571	0.224151	1.02811
C	0.722815	0.335015	0.807282
O	1.03471	-0.00393031	-0.47133
H	-0.0951382	-0.646014	-2.13166
H	-2.24574	-0.419433	-0.417089
H	-1.15656	0.432356	1.96689
H	1.54991	0.640487	1.46899
C	5.50346	-0.29401	1.12127
C	6.43924	0.0855999	0.182462
N	5.85402	0.353796	-1.01006
C	4.56011	0.141375	-0.811805
N	4.2978	-0.25086	0.457421
H	5.60674	-0.582192	2.17949
H	7.52617	0.170773	0.344219
H	3.76124	0.258062	-1.56175
H	3.35551	-0.47869	0.859226
