18
  This energy is -1.3451 and Call times are: 123807
C	0.00905816	-0.76045	-0.841448
C	0.243826	-1.10518	0.457174
C	0.148195	0.106815	1.20686
C	-0.136571	1.08519	0.300185
O	-0.225146	0.573382	-0.955689
H	-0.0189272	-1.36293	-1.76421
H	0.462418	-2.11196	0.847968
H	0.277897	0.226584	2.29449
H	-0.297619	2.16908	0.420544
C	5.23068	0.855783	-0.68355
C	5.95066	-0.117795	-0.0240657
N	5.1323	-0.942242	0.673851
C	3.90929	-0.481878	0.448194
N	3.91556	0.601307	-0.36437
H	5.55045	1.68406	-1.33565
H	7.04595	-0.240111	-0.039335
H	2.97376	-0.900233	0.853148
H	3.07814	1.1439	-0.689319
