18
  This energy is -1.1042 and Call times are: 44314
C	-0.392493	-1.06121	-0.0786161
C	-0.310414	-0.230973	-1.15766
C	0.223612	0.99878	-0.665075
C	0.420727	0.811466	0.6715
O	0.0498519	-0.440966	1.04683
H	-0.743088	-2.10187	0.0181537
H	-0.597161	-0.461416	-2.1963
H	0.433239	1.91138	-1.24586
H	0.813177	1.48189	1.45366
C	4.01251	-0.125771	0.432009
C	5.17061	-0.683844	0.930513
N	6.24465	-0.328884	0.184224
C	5.75472	0.446448	-0.773614
N	4.41347	0.59952	-0.667703
H	2.96631	-0.191247	0.770707
H	5.25043	-1.33625	1.8153
H	6.33373	0.92806	-1.57799
H	3.79655	1.16329	-1.30239
