18
  This energy is -0.8849 and Call times are: 174372
C	-0.737498	-0.153248	0.847946
C	0.309205	-0.999743	0.628327
C	0.998486	-0.481979	-0.510501
C	0.312145	0.635208	-0.886271
O	-0.751032	0.850982	-0.0676696
H	-1.53232	-0.156213	1.61182
H	0.569775	-1.89859	1.20993
H	1.89974	-0.899571	-0.987427
H	0.476392	1.35266	-1.70696
C	5.01057	-1.15577	0.115781
C	4.73505	-0.3787	-0.989386
N	5.08127	0.914069	-0.776339
C	5.56972	0.938903	0.456308
N	5.54864	-0.284475	1.03639
H	4.86662	-2.23125	0.305941
H	4.29264	-0.727692	-1.93666
H	5.95655	1.82615	0.982992
H	5.8792	-0.523687	2.00322
