18
  This energy is -0.8611 and Call times are: 107684
C	-0.581868	-0.303104	-0.925181
C	0.470322	0.563357	-0.975353
C	0.934464	0.69307	0.369215
C	0.124932	-0.105575	1.12234
O	-0.806796	-0.721591	0.348117
H	-1.24347	-0.696271	-1.71446
H	0.878656	1.06121	-1.8695
H	1.77421	1.31149	0.724835
H	0.109141	-0.318259	2.2039
C	5.94306	0.204937	-1.07088
C	6.31724	-0.794616	-0.19794
N	5.59756	-0.736497	0.948881
C	4.78003	0.295188	0.788006
N	4.9497	0.895906	-0.413634
H	6.30143	0.464778	-2.07964
H	7.0936	-1.55668	-0.375066
H	4.0372	0.65423	1.51844
H	4.42458	1.72925	-0.775649
