18
  This energy is -0.7765 and Call times are: 166152
C	0.431664	0.692351	-0.787856
C	-0.599984	-0.160249	-1.05082
C	-0.855932	-0.853106	0.171699
C	0.0419032	-0.362737	1.07381
O	0.836161	0.581989	0.504898
H	0.960749	1.41869	-1.42641
H	-1.12779	-0.288406	-2.00952
H	-1.62164	-1.62527	0.34933
H	0.214862	-0.600437	2.13628
C	5.48565	-0.99599	0.22385
C	4.15293	-0.87664	-0.108945
N	3.81095	0.4209	-0.298546
C	4.92727	1.10391	-0.0841885
N	5.96535	0.294736	0.233941
H	6.10595	-1.87864	0.446775
H	3.43201	-1.70353	-0.215644
H	5.04031	2.19823	-0.146802
H	6.94834	0.59365	0.447577
