18
  This energy is -0.9685 and Call times are: 13647
C	-0.999043	-0.152396	0.514868
C	-0.17604	0.893785	0.812432
C	0.967097	0.744088	-0.0307441
C	0.741736	-0.380356	-0.769128
O	-0.454319	-0.940663	-0.448939
H	-1.98505	-0.443144	0.913001
H	-0.355901	1.69094	1.55154
H	1.84977	1.4021	-0.0753594
H	1.34629	-0.879394	-1.54419
C	6.30383	0.552649	-0.912958
C	6.24437	0.927049	0.412724
N	6.93041	0.0601554	1.19653
C	7.41363	-0.848586	0.360287
N	7.06349	-0.59583	-0.923109
H	5.87367	1.00706	-1.81961
H	5.71875	1.80716	0.817674
H	8.03004	-1.71981	0.634588
H	7.32154	-1.16609	-1.76541
