18
  This energy is -0.9519 and Call times are: 46574
C	0.262995	0.794732	0.765268
C	0.935351	-0.388992	0.680949
C	0.321483	-1.11213	-0.386928
C	-0.671807	-0.306462	-0.860905
O	-0.721825	0.862121	-0.168862
H	0.38704	1.65974	1.4373
H	1.77896	-0.719755	1.30785
H	0.59451	-2.11504	-0.752607
H	-1.4019	-0.447626	-1.67472
C	6.17914	-0.490539	-0.544503
C	6.13981	0.4318	0.47965
N	7.38938	0.782911	0.869271
C	8.20083	0.0810607	0.0897919
N	7.51935	-0.70206	-0.779635
H	5.37508	-0.99454	-1.10398
H	5.23219	0.850204	0.944416
H	9.30228	0.10259	0.113481
H	7.93309	-1.34741	-1.4963
