18
  This energy is -1.1884 and Call times are: 101345
C	0.424765	-1.02639	-0.229137
C	-0.389855	-0.362293	-1.09847
C	-0.712305	0.875999	-0.463828
C	-0.0662648	0.859294	0.737308
O	0.632992	-0.295031	0.89726
H	0.914826	-2.01172	-0.293989
H	-0.729607	-0.709584	-2.08744
H	-1.35177	1.67969	-0.862894
H	-0.024862	1.59692	1.5555
C	4.14398	-0.573043	-0.377801
C	4.29333	0.0842617	0.825024
N	5.5272	0.634526	0.931234
C	6.14097	0.319787	-0.201395
N	5.34877	-0.407926	-1.02386
H	3.29395	-1.1281	-0.80548
H	3.53289	0.171315	1.61812
H	7.17053	0.596697	-0.479894
H	5.60376	-0.776192	-1.97287
