18
  This energy is -1.1991 and Call times are: 136603
C	-0.3676	0.664896	-0.842131
C	0.867157	0.811572	-0.281564
C	0.959728	-0.193662	0.728907
C	-0.226632	-0.865883	0.696623
O	-1.04922	-0.354878	-0.256918
H	-0.872465	1.21526	-1.65297
H	1.63569	1.55324	-0.552455
H	1.8143	-0.386348	1.39724
H	-0.602694	-1.7142	1.29175
C	5.81129	-0.98305	-0.567278
C	6.59328	-0.240646	0.292062
N	5.91456	0.831767	0.767219
C	4.71606	0.754952	0.204792
N	4.60408	-0.321882	-0.608523
H	6.02142	-1.90434	-1.13349
H	7.63506	-0.459599	0.57773
H	3.88312	1.46079	0.353895
H	3.75872	-0.60011	-1.16458
