18
  This energy is -1.2887 and Call times are: 56085
C	-0.585173	-0.932644	-0.272301
C	0.770643	-0.857555	-0.400745
C	1.13265	0.453625	0.0350054
C	-0.033911	1.06403	0.391265
O	-1.0931	0.231985	0.210052
H	-1.2959	-1.74745	-0.487273
H	1.4479	-1.64636	-0.765732
H	2.14638	0.883554	0.0750463
H	-0.24095	2.07361	0.782597
C	5.26377	-0.480263	1.04157
C	4.68852	-1.1135	-0.0397477
N	4.52616	-0.257494	-1.07773
C	4.99889	0.902376	-0.642003
N	5.4553	0.819841	0.630187
H	5.54115	-0.850451	2.04135
H	4.38773	-2.1727	-0.0895457
H	5.03482	1.84397	-1.21327
H	5.87509	1.59798	1.19547
