18
  This energy is -1.3777 and Call times are: 165470
C	0.889717	0.602972	-0.362257
C	0.532721	-0.584967	-0.929468
C	-0.617657	-1.03159	-0.21025
C	-0.862089	-0.0771528	0.732974
O	0.0487804	0.928422	0.654562
H	1.71051	1.30344	-0.58783
H	1.02962	-1.09552	-1.77001
H	-1.19002	-1.95728	-0.38229
H	-1.64193	0.00188341	1.50812
C	4.53742	-0.76798	0.89101
C	4.44381	0.604453	0.984866
N	4.42478	1.17801	-0.242807
C	4.50627	0.165248	-1.09504
N	4.57637	-1.02892	-0.4605
H	4.57773	-1.55129	1.66453
H	4.38966	1.19108	1.91642
H	4.51856	0.241835	-2.19422
H	4.64693	-1.97359	-0.912041
