18
  This energy is -1.4972 and Call times are: 82756
C	-0.687968	0.506607	-0.745956
C	0.160712	1.20856	0.0586399
C	0.848662	0.234884	0.845275
C	0.359648	-0.976117	0.451939
O	-0.579703	-0.828999	-0.519136
H	-1.40994	0.835979	-1.51115
H	0.289381	2.30229	0.0945977
H	1.61677	0.423589	1.6124
H	0.594894	-2.00152	0.781267
C	3.99832	0.821374	-0.260285
C	5.12708	0.983047	0.514894
N	5.82714	-0.173737	0.605908
C	5.1353	-1.04972	-0.110087
N	4.02407	-0.498242	-0.652891
H	3.20502	1.52841	-0.550641
H	5.44889	1.91365	1.01014
H	5.39734	-2.10803	-0.269899
H	3.31687	-0.983467	-1.2576
