18
  This energy is -0.7523 and Call times are: 5730
C	-0.789426	0.445787	0.681528
C	0.124307	-0.466496	1.12108
C	0.93487	-0.784718	-0.0111049
C	0.444907	-0.0388039	-1.04257
O	-0.608306	0.718597	-0.63748
H	-1.6087	0.968843	1.20157
H	0.218115	-0.874427	2.14034
H	1.78209	-1.48843	-0.0442028
H	0.753447	0.0414776	-2.09785
C	4.7415	-0.0723586	-0.509353
C	5.57211	-1.12075	-0.174526
N	6.71642	-0.674018	0.397748
C	6.59617	0.646497	0.417867
N	5.42278	1.05848	-0.117883
H	3.747	-0.0516734	-0.98271
H	5.3662	-2.1915	-0.335625
H	7.33747	1.35939	0.813453
H	5.09454	2.05036	-0.2163
