18
  This energy is -0.6992 and Call times are: 150990
C	-0.981959	0.473969	-0.312267
C	0.226651	1.01864	-0.633164
C	1.20955	0.147136	-0.0723464
C	0.514805	-0.853161	0.541749
O	-0.824837	-0.669526	0.405188
H	-2.01203	0.799205	-0.53233
H	0.40785	1.94153	-1.20721
H	2.30434	0.259977	-0.125114
H	0.852339	-1.74053	1.10201
C	6.7632	-0.590863	0.539314
C	6.1308	0.547381	0.992766
N	5.18263	0.961208	0.117419
C	5.22665	0.0830301	-0.8753
N	6.16351	-0.872398	-0.667873
H	7.57061	-1.20013	0.975689
H	6.3417	1.07743	1.93586
H	4.59518	0.0926223	-1.77829
H	6.38993	-1.67476	-1.30522
