18
  This energy is -0.6743 and Call times are: 133474
C	1.11978	-0.126992	0.127901
C	0.218597	-0.685822	0.985775
C	-1.07019	-0.306974	0.500358
C	-0.842787	0.44992	-0.611296
O	0.489084	0.570182	-0.853515
H	2.22171	-0.151193	0.107299
H	0.439257	-1.30292	1.87155
H	-2.04744	-0.571932	0.934942
H	-1.53407	0.952848	-1.30731
C	4.93954	-0.973564	0.0325407
C	5.31808	-0.194193	1.10512
N	6.07868	0.853157	0.703786
C	6.17163	0.724024	-0.612766
N	5.50171	-0.362073	-1.06575
H	4.33022	-1.88951	-0.0249889
H	5.05602	-0.368839	2.16137
H	6.71789	1.39661	-1.29354
H	5.42514	-0.678118	-2.0635
