18
  This energy is -1.1633 and Call times are: 208164
C	1.00172	0.531708	-0.0156419
C	-0.183506	1.20668	-0.0112498
C	-1.20298	0.206503	0.00963766
C	-0.550738	-0.991376	0.0161661
O	0.796284	-0.811621	0.000926136
H	2.04525	0.886815	-0.0297847
H	-0.325624	2.29929	-0.0216742
H	-2.29268	0.369449	0.0186279
H	-0.925701	-2.02792	0.0310862
C	5.22417	-0.0132464	1.17438
C	6.26456	0.483185	0.417887
N	6.01947	0.33544	-0.906731
C	4.83155	-0.250419	-0.971748
N	4.31064	-0.481563	0.256592
H	5.07423	-0.0646877	2.26452
H	7.18766	0.945314	0.804136
H	4.29691	-0.532372	-1.8931
H	3.38687	-0.931751	0.469286
