18
  This energy is -1.7485 and Call times are: 37582
C	-0.85959	-0.597841	0.435994
C	-0.203182	-0.981698	-0.696329
C	0.798593	0.0108556	-0.92305
C	0.66592	0.913628	0.0907419
O	-0.341956	0.557574	0.930041
H	-1.70008	-1.05429	0.984157
H	-0.404256	-1.87426	-1.31033
H	1.52866	0.0408672	-1.74779
H	1.2193	1.83822	0.323445
C	4.5483	-0.46844	-0.860782
C	5.89602	-0.662816	-0.643976
N	6.32169	0.0309806	0.439522
C	5.24214	0.653403	0.893163
N	4.14724	0.384393	0.143216
H	3.8689	-0.863473	-1.63273
H	6.56888	-1.29124	-1.24994
H	5.19742	1.31819	1.77082
H	3.17757	0.754896	0.297237
