18
  This energy is -0.8384 and Call times are: 195858
C	-0.610791	0.494691	0.817689
C	-0.284406	-0.82926	0.849311
C	0.476708	-1.07271	-0.334562
C	0.548241	0.123964	-0.985122
O	-0.110442	1.09234	-0.29563
H	-1.18666	1.12263	1.5172
H	-0.552707	-1.56102	1.62818
H	0.915857	-2.03076	-0.656098
H	1.03138	0.413162	-1.93285
C	5.06814	-0.995357	-0.627169
C	4.3007	0.132793	-0.825817
N	4.59938	1.09311	0.0825335
C	5.54849	0.562728	0.841809
N	5.86609	-0.695243	0.454216
H	5.10179	-1.95839	-1.161
H	3.53685	0.271029	-1.60829
H	6.04563	1.05184	1.69496
H	6.58351	-1.32246	0.893733
