18
  This energy is -1.3451 and Call times are: 95831
C	0.135396	-1.09349	-0.268985
C	0.614024	-0.562332	0.89255
C	0.251356	0.818992	0.86946
C	-0.416879	1.01	-0.304146
O	-0.497005	-0.147405	-1.01196
H	0.179062	-2.11636	-0.677743
H	1.167	-1.09028	1.68601
H	0.467233	1.57497	1.64146
H	-0.877832	1.90911	-0.745031
C	5.50683	-0.579063	0.189928
C	4.34979	-1.08928	-0.359694
N	3.38371	-0.141636	-0.431448
C	3.9393	0.95232	0.0717466
N	5.21884	0.740004	0.460692
H	6.48224	-1.04573	0.400514
H	4.19478	-2.12421	-0.705753
H	3.45406	1.93585	0.17876
H	5.86786	1.44575	0.887242
