18
  This energy is -1.2565 and Call times are: 154930
C	-1.04259	-0.00992669	-0.446434
C	0.00922942	0.603761	-1.06079
C	1.13428	0.401974	-0.204248
C	0.670642	-0.317209	0.857915
O	-0.656739	-0.577613	0.726537
H	-2.10099	-0.112027	-0.73733
H	-0.00565674	1.14432	-2.02083
H	2.16512	0.75497	-0.368138
H	1.17764	-0.700076	1.75881
C	5.11954	0.170178	1.14365
C	5.28588	1.08358	0.12425
N	4.93564	0.550511	-1.07144
C	4.55347	-0.688875	-0.794869
N	4.64603	-0.966487	0.527233
H	5.29864	0.24607	2.22795
H	5.65234	2.11767	0.230097
H	4.19682	-1.43537	-1.52272
H	4.40333	-1.87459	0.993824
