18
  This energy is -1.3088 and Call times are: 130990
C	0.403929	0.287585	-1.02007
C	-0.76867	0.784818	-0.532067
C	-0.935225	0.197328	0.759147
C	0.150298	-0.607049	0.946204
O	0.978581	-0.564065	-0.130416
H	0.930612	0.459506	-1.97311
H	-1.44818	1.49415	-1.03128
H	-1.76955	0.360589	1.46011
H	0.445237	-1.25256	1.78975
C	4.17925	-0.371185	1.0948
C	5.03839	-0.947308	0.183153
N	5.04833	-0.256807	-0.982875
C	4.19858	0.743878	-0.795315
N	3.64839	0.718704	0.441716
H	3.91681	-0.650339	2.12763
H	5.65127	-1.84884	0.345871
H	3.94218	1.52357	-1.53055
H	2.9504	1.39969	0.829444
