18
  This energy is -0.6673 and Call times are: 199918
C	-0.880433	0.599778	-0.389237
C	-0.641422	0.434197	0.943366
C	0.537173	-0.367727	1.03253
C	0.914342	-0.621398	-0.253463
O	0.0598729	-0.0381745	-1.13479
H	-1.67525	1.14165	-0.927655
H	-1.23548	0.836415	1.77967
H	1.03861	-0.710892	1.95171
H	1.75943	-1.19532	-0.667823
C	5.52028	-1.07228	-0.071863
C	4.85048	0.129654	0.0168444
N	5.71796	1.16866	0.0837576
C	6.92133	0.613399	0.0367402
N	6.85548	-0.735826	-0.0573149
H	5.15349	-2.10867	-0.141974
H	3.75685	0.26576	0.0337631
H	7.88419	1.14834	0.0677046
H	7.66694	-1.39922	-0.10926
