18
  This energy is -1.241 and Call times are: 135460
C	-1.0294	-0.397811	0.261698
C	-0.705357	0.0188191	-0.995995
C	0.656955	0.442708	-0.928605
C	1.04514	0.24769	0.364318
O	0.0277983	-0.265064	1.10534
H	-1.96549	-0.803986	0.678837
H	-1.35999	0.0268416	-1.88227
H	1.26858	0.844732	-1.75225
H	2.00457	0.431315	0.875224
C	4.53876	0.305089	-1.03888
C	4.33211	-0.874928	-0.356237
N	5.02033	-0.891111	0.811067
C	5.65154	0.274434	0.852431
N	5.39346	1.03154	-0.240167
H	4.15102	0.6672	-2.00432
H	3.69875	-1.71491	-0.685076
H	6.31525	0.624377	1.65943
H	5.77227	1.98944	-0.44065
