18
  This energy is -1.1039 and Call times are: 76988
C	0.0567035	-0.266405	-1.10101
C	-0.404853	-1.14022	-0.160902
C	-0.323705	-0.450544	1.08725
C	0.180275	0.783833	0.799692
O	0.418425	0.913605	-0.53202
H	0.175905	-0.362677	-2.19269
H	-0.76621	-2.1674	-0.329469
H	-0.609636	-0.836681	2.07883
H	0.412386	1.64717	1.44469
C	5.47415	-0.500137	0.82491
C	5.72459	0.678153	0.154045
N	4.73588	0.956807	-0.729885
C	3.87536	-0.0448051	-0.60785
N	4.27555	-0.949201	0.317085
H	6.04501	-1.03309	1.60184
H	6.60096	1.33221	0.291989
H	2.93619	-0.165405	-1.17145
H	3.76923	-1.82552	0.594508
