18
  This energy is -1.4941 and Call times are: 124673
C	-0.771461	0.809254	0.190676
C	0.336153	0.65733	0.972012
C	1.0527	-0.449835	0.423503
C	0.319706	-0.876746	-0.644597
O	-0.797647	-0.119168	-0.801472
H	-1.60482	1.52948	0.235815
H	0.620106	1.26406	1.84686
H	2.00268	-0.872212	0.788512
H	0.483356	-1.69703	-1.36265
C	3.97307	0.64186	-0.761623
C	4.38817	1.02317	0.496728
N	5.09155	0.0341839	1.09979
C	5.11273	-0.95689	0.21891
N	4.45198	-0.639493	-0.919627
H	3.39021	1.17391	-1.53021
H	4.19273	1.99416	0.980281
H	5.59784	-1.93668	0.356414
H	4.32812	-1.25268	-1.76219
