18
  This energy is -0.505 and Call times are: 164125
C	1.05282	-0.18048	0.381314
C	0.0569023	0.294364	1.18322
C	-1.10249	0.386062	0.354053
C	-0.712719	-0.0408424	-0.881342
O	0.600503	-0.390783	-0.882884
H	2.1115	-0.408326	0.587527
H	0.131248	0.554013	2.25146
H	-2.1058	0.730943	0.651598
H	-1.26722	-0.1411	-1.82883
C	7.04739	-0.408617	-0.347994
C	5.88662	-1.13567	-0.189405
N	4.86732	-0.344584	0.224974
C	5.39374	0.868628	0.323081
N	6.70573	0.882259	-0.0116981
H	8.05865	-0.708474	-0.665765
H	5.76636	-2.21688	-0.366558
H	4.86326	1.78257	0.635392
H	7.34154	1.71712	-0.014539
