18
  This energy is -1.3323 and Call times are: 56661
C	-0.334617	0.170923	-1.07015
C	-0.657924	1.02646	-0.0582704
C	-0.0642049	0.480164	1.12036
C	0.569504	-0.660986	0.724681
O	0.414733	-0.865286	-0.609979
H	-0.573562	0.187736	-2.14619
H	-1.25464	1.94964	-0.134226
H	-0.109066	0.895558	2.13993
H	1.15666	-1.4043	1.28858
C	3.91701	0.351993	-0.297203
C	4.2805	-0.886107	0.188726
N	5.61345	-0.945902	0.425758
C	6.07513	0.250553	0.0881611
N	5.09119	1.06913	-0.353848
H	2.93851	0.75988	-0.596716
H	3.60484	-1.73731	0.372535
H	7.12499	0.580397	0.14488
H	5.20171	2.0611	-0.677948
