18
  This energy is -0.9876 and Call times are: 123487
C	-0.0295014	-1.0574	0.409195
C	-0.852794	-0.0725258	0.87027
C	-0.520676	1.09732	0.121094
C	0.476251	0.724061	-0.731657
O	0.788811	-0.588562	-0.56936
H	0.0705878	-2.11834	0.691379
H	-1.61728	-0.160967	1.65884
H	-0.976456	2.09625	0.213309
H	1.03845	1.29085	-1.49188
C	4.485	-0.147923	0.923029
C	4.25908	0.648822	-0.179378
N	5.29446	0.581773	-1.05116
C	6.15941	-0.25339	-0.491711
N	5.71729	-0.720508	0.699894
H	3.87636	-0.341513	1.82059
H	3.36755	1.27084	-0.361337
H	7.13171	-0.557647	-0.911586
H	6.21786	-1.39109	1.33314
