18
  This energy is -0.9141 and Call times are: 86666
C	-0.222011	1.01275	-0.459843
C	-1.19824	0.221603	0.070663
C	-0.536188	-0.952403	0.543433
C	0.786171	-0.775039	0.260096
O	0.996118	0.419713	-0.352687
H	-0.264431	2.0057	-0.936809
H	-2.27641	0.442577	0.123742
H	-0.998982	-1.82266	1.03595
H	1.66494	-1.4156	0.440943
C	4.61046	-0.598568	-0.485312
C	4.90513	-0.498563	0.857934
N	6.00128	0.2718	1.06168
C	6.38517	0.648277	-0.150559
N	5.57871	0.149387	-1.11717
H	3.80706	-1.13129	-1.0185
H	4.34645	-0.968468	1.68371
H	7.24983	1.28899	-0.387352
H	5.67306	0.303075	-2.15096
