18
  This energy is -1.9911 and Call times are: 159211
C	-0.492961	-0.394389	-0.942257
C	0.414514	-1.12433	-0.232288
C	0.802086	-0.301743	0.869194
C	0.0972371	0.858247	0.73509
O	-0.698717	0.819019	-0.365787
H	-1.05592	-0.622834	-1.86212
H	0.774837	-2.14012	-0.461268
H	1.52266	-0.552949	1.66403
H	0.0735483	1.77434	1.34783
C	4.24206	-0.924645	0.714102
C	4.55334	0.389844	0.990445
N	4.2588	1.19308	-0.0605386
C	3.76666	0.379988	-0.985366
N	3.73587	-0.907296	-0.566387
H	4.34162	-1.84064	1.3179
H	4.98518	0.77305	1.92934
H	3.41386	0.674676	-1.98682
H	3.39191	-1.73453	-1.11286
