18
  This energy is -1.6722 and Call times are: 47525
C	0.419042	0.807494	-0.677317
C	0.760265	-0.506451	-0.809563
C	0.0391556	-1.20205	0.208406
C	-0.67907	-0.251769	0.872855
O	-0.459123	0.981225	0.345256
H	0.727978	1.70334	-1.24058
H	1.45052	-0.942135	-1.54971
H	0.0591477	-2.28429	0.414454
H	-1.37349	-0.323776	1.726
C	3.89305	0.480369	0.994347
C	3.79793	1.00474	-0.277319
N	4.37607	0.184891	-1.18842
C	4.82813	-0.844177	-0.484659
N	4.56159	-0.713076	0.836461
H	3.54395	0.859385	1.96801
H	3.3225	1.95994	-0.553726
H	5.36148	-1.72066	-0.886594
H	4.81577	-1.39134	1.59581
