18
  This energy is -0.926 and Call times are: 81234
C	-0.871546	-0.693772	0.213283
C	-0.0698157	-0.202995	1.20159
C	0.897951	0.619264	0.5478
C	0.602177	0.558371	-0.782307
O	-0.475614	-0.239072	-1.00471
H	-1.74449	-1.36618	0.246345
H	-0.151702	-0.400219	2.28255
H	1.7156	1.18632	1.02108
H	1.07579	1.03005	-1.65892
C	5.79338	0.282901	-1.07252
C	6.23444	-0.752408	-0.275813
N	5.55917	-0.787051	0.898631
C	4.70245	0.222927	0.830771
N	4.80463	0.898749	-0.338166
H	6.10283	0.613953	-2.07661
H	7.0278	-1.475	-0.527377
H	3.97771	0.512134	1.6088
H	4.2385	1.73293	-0.629544
