18
  This energy is -1.9708 and Call times are: 78841
C	-0.329991	-0.324848	-1.03536
C	-0.345772	0.980363	-0.639702
C	0.13306	0.986818	0.705956
C	0.39918	-0.315018	1.01381
O	0.122165	-1.12979	-0.038051
H	-0.61183	-0.803628	-1.98751
H	-0.662802	1.85124	-1.23566
H	0.261102	1.86369	1.36078
H	0.783589	-0.784816	1.93402
C	3.8581	-0.820895	0.0493118
C	5.21529	-1.01786	0.192126
N	5.89318	0.150046	0.0782941
C	4.96009	1.06806	-0.13433
N	3.7166	0.532672	-0.160503
H	3.01122	-1.52468	0.0810793
H	5.71749	-1.98176	0.375262
H	5.13234	2.14697	-0.277624
H	2.81625	1.0501	-0.311799
