18
  This energy is -0.6783 and Call times are: 143154
C	0.0569911	-1.11629	-0.192459
C	-0.9482	-0.339789	-0.689455
C	-0.676101	0.987878	-0.23848
C	0.471346	0.905489	0.494289
O	0.932868	-0.37221	0.532931
H	0.259311	-2.19621	-0.282477
H	-1.79622	-0.66892	-1.31126
H	-1.2712	1.89281	-0.441104
H	1.05227	1.67289	1.03176
C	6.62386	0.370326	-0.628039
C	6.59255	0.116378	0.726832
N	5.36251	-0.29619	1.11834
C	4.6335	-0.29818	0.0105679
N	5.34871	0.0960198	-1.06956
H	7.43622	0.715325	-1.28727
H	7.43548	0.223455	1.42888
H	3.57085	-0.579493	-0.0661259
H	4.99857	0.177222	-2.05549
