18
  This energy is -0.684 and Call times are: 121991
C	-0.326922	-0.217657	1.06402
C	0.951551	0.140391	0.751484
C	0.970393	0.326521	-0.664538
C	-0.29823	0.0657837	-1.09231
O	-1.10381	-0.268156	-0.0499349
H	-0.803411	-0.45972	2.02819
H	1.79657	0.261302	1.4482
H	1.83293	0.620438	-1.28401
H	-0.748505	0.0827013	-2.0984
C	5.12405	-0.0280825	0.0380841
C	5.99469	-0.790902	0.787238
N	7.28336	-0.49884	0.486303
C	7.21243	0.441591	-0.445997
N	5.93207	0.760001	-0.75073
H	4.02338	0.00850237	0.0113624
H	5.7161	-1.54678	1.5395
H	8.06723	0.931539	-0.939464
H	5.61525	1.47163	-1.45392
