18
  This energy is -0.9396 and Call times are: 151378
C	-0.750307	0.480604	-0.701755
C	-1.12318	-0.128545	0.46026
C	0.084178	-0.603408	1.05769
C	1.08826	-0.242521	0.208012
O	0.596717	0.420375	-0.871786
H	-1.33976	0.98744	-1.48336
H	-2.14584	-0.233009	0.85692
H	0.18374	-1.14925	2.00965
H	2.17872	-0.396408	0.257663
C	4.89029	-0.865478	-0.73493
C	5.61908	-0.989362	0.428973
N	5.79192	0.214042	1.02769
C	5.17272	1.08119	0.23821
N	4.61306	0.479403	-0.838002
H	4.56034	-1.61421	-1.47254
H	6.02327	-1.9255	0.847442
H	5.09855	2.16848	0.401062
H	4.0712	0.948033	-1.60483
