18
  This energy is -0.9455 and Call times are: 159545
C	0.264585	0.158324	1.09148
C	-0.2615	-1.01235	0.62981
C	-0.455785	-0.827329	-0.773094
C	-0.0312737	0.440069	-1.04487
O	0.411951	1.05656	0.0822907
H	0.572688	0.473154	2.10203
H	-0.489844	-1.91557	1.21815
H	-0.864717	-1.55858	-1.48874
H	0.00649985	1.01233	-1.98633
C	5.8847	-0.230525	-0.741119
C	5.84318	0.762578	0.214478
N	4.66912	0.740968	0.890959
C	3.98489	-0.261729	0.357062
N	4.67492	-0.878998	-0.631078
H	6.66355	-0.512278	-1.46745
H	6.63934	1.4943	0.427935
H	2.9742	-0.586955	0.651975
H	4.35021	-1.69592	-1.20419
