18
  This energy is -1.1252 and Call times are: 115245
C	0.159458	0.609998	0.942802
C	-0.930556	-0.190735	0.766534
C	-0.775558	-0.783737	-0.523598
C	0.395491	-0.293031	-1.02182
O	0.979855	0.559658	-0.139523
H	0.462971	1.2575	1.78178
H	-1.76049	-0.348025	1.47404
H	-1.46142	-1.49222	-1.01526
H	0.914668	-0.470637	-1.97794
C	4.25259	0.343373	-0.841763
C	5.42112	-0.368287	-1.01267
N	6.03505	-0.592044	0.17457
C	5.25036	-0.0213674	1.07857
N	4.16261	0.556217	0.515731
H	3.50366	0.701467	-1.56593
H	5.83223	-0.724299	-1.97136
H	5.42505	0.00312718	2.16628
H	3.39665	1.06856	1.01779
