18
  This energy is -0.7495 and Call times are: 36878
C	0.158052	-0.682679	0.891835
C	0.998683	0.352874	0.60663
C	0.476093	0.967457	-0.572058
C	-0.637753	0.253213	-0.90308
O	-0.846993	-0.758292	-0.0198554
H	0.166049	-1.42858	1.70351
H	1.89669	0.653775	1.16978
H	0.888357	1.83961	-1.10449
H	-1.35689	0.362446	-1.73143
C	5.13658	-0.562086	0.697385
C	4.9459	0.650631	0.0696097
N	6.03453	1.00099	-0.657458
C	6.8973	0.00939015	-0.481404
N	6.40274	-0.957361	0.327541
H	4.48268	-1.1521	1.35907
H	4.04231	1.27907	0.128267
H	7.90516	-0.0593257	-0.921553
H	6.89083	-1.83987	0.617713
