18
  This energy is -1.1703 and Call times are: 24530
C	-0.0255489	0.788378	-0.814989
C	0.622147	-0.401904	-0.970203
C	0.430795	-1.11362	0.253303
C	-0.316942	-0.295424	1.04818
O	-0.604726	0.870393	0.41173
H	-0.14629	1.64891	-1.49334
H	1.17882	-0.744373	-1.85729
H	0.809611	-2.11762	0.503457
H	-0.703931	-0.425169	2.07221
C	5.35036	-0.752513	0.784853
C	5.75094	0.547664	0.560756
N	5.01266	1.12455	-0.418359
C	4.15733	0.185821	-0.800226
N	4.32078	-0.964428	-0.104668
H	5.713	-1.51647	1.49083
H	6.55943	1.07981	1.08802
H	3.39015	0.2876	-1.58464
H	3.76844	-1.84912	-0.220859
