18
  This energy is -1.5049 and Call times are: 105328
C	-1.13238	0.00224133	-0.0641845
C	-0.397635	-1.14293	-0.15964
C	0.967799	-0.743033	-0.033985
C	0.946919	0.611207	0.127165
O	-0.327456	1.08315	0.111203
H	-2.21978	0.17874	-0.10492
H	-0.778934	-2.16658	-0.304053
H	1.85566	-1.39498	-0.0616018
H	1.75938	1.34412	0.261267
C	4.47742	-0.0713397	-1.12958
C	4.79038	-1.1198	-0.290575
N	5.11917	-0.674412	0.946374
C	5.01058	0.645338	0.875011
N	4.62634	1.05813	-0.356067
H	4.16953	-0.0497559	-2.18706
H	4.78484	-2.18965	-0.555606
H	5.20065	1.35707	1.69449
H	4.47139	2.04965	-0.662861
