18
  This energy is -1.8421 and Call times are: 33450
C	0.155079	-0.773619	-0.814779
C	-0.479143	0.411892	-1.04434
C	-0.478308	1.10412	0.205033
C	0.156351	0.280505	1.08778
O	0.549883	-0.870673	0.482033
H	0.38534	-1.62071	-1.48161
H	-0.904857	0.763635	-1.99783
H	-0.903246	2.09927	0.412832
H	0.387775	0.396575	2.15933
C	4.13943	0.787341	0.67153
C	5.50311	0.648895	0.521955
N	5.80109	-0.36212	-0.329848
C	4.62674	-0.849029	-0.707272
N	3.59391	-0.189728	-0.130923
H	3.53864	1.48862	1.27219
H	6.27731	1.2604	1.0134
H	4.46579	-1.68768	-1.40369
H	2.57223	-0.385549	-0.269036
