18
  This energy is -0.9 and Call times are: 26456
C	-0.213036	0.854353	0.714911
C	-0.968978	0.626939	-0.397389
C	-0.397339	-0.518334	-1.03118
C	0.657459	-0.889679	-0.250238
O	0.784703	-0.062374	0.820457
H	-0.281306	1.62494	1.50027
H	-1.8416	1.20745	-0.737445
H	-0.738626	-1.00235	-1.96035
H	1.38457	-1.71263	-0.346739
C	5.45131	1.16214	0.178566
C	4.31339	0.39176	0.0654426
N	4.62393	-0.911796	-0.136601
C	5.94945	-0.949958	-0.148775
N	6.49518	0.27528	0.0371487
H	5.58758	2.24267	0.34417
H	3.27389	0.753166	0.125991
H	6.57123	-1.84867	-0.290007
H	7.51851	0.505741	0.0677435
