18
  This energy is -1.0456 and Call times are: 80829
C	-0.135248	-0.396788	1.05388
C	-0.918499	0.594924	0.540659
C	-0.448812	0.814911	-0.790174
C	0.579995	-0.0617902	-0.972722
O	0.785274	-0.809696	0.143301
H	-0.13235	-0.889745	2.0399
H	-1.74418	1.11897	1.04832
H	-0.837923	1.54344	-1.51952
H	1.23642	-0.248658	-1.83843
C	4.25061	-0.354172	0.398049
C	4.50315	0.723986	-0.423502
N	5.82798	0.840037	-0.684032
C	6.39517	-0.162313	-0.0266067
N	5.48615	-0.911317	0.641422
H	3.31047	-0.751136	0.812889
H	3.75315	1.42021	-0.832925
H	7.47219	-0.393771	-0.000266124
H	5.68472	-1.7556	1.2322
