18
  This energy is -0.6919 and Call times are: 115117
C	-0.728342	0.0969069	0.864018
C	-1.04536	0.482529	-0.405299
C	0.110829	0.207801	-1.19767
C	1.03232	-0.321451	-0.342618
O	0.536722	-0.39647	0.920619
H	-1.30739	0.121596	1.80175
H	-1.99785	0.916871	-0.749129
H	0.233021	0.386787	-2.27801
H	2.062	-0.679018	-0.507395
C	5.06224	-0.823641	-0.403018
C	5.00001	0.532501	-0.644163
N	6.01136	1.18623	-0.0226149
C	6.6984	0.239241	0.601748
N	6.1661	-0.989924	0.403226
H	4.42053	-1.65444	-0.736952
H	4.24349	1.05096	-1.25549
H	7.59925	0.390743	1.21798
H	6.52577	-1.89681	0.789824
