18
  This energy is -1.6011 and Call times are: 176167
C	-0.130679	0.865765	-0.720954
C	-0.256648	1.01406	0.629052
C	-0.0248847	-0.279836	1.18784
C	0.222253	-1.10459	0.129972
O	0.16169	-0.421678	-1.04348
H	-0.224039	1.58891	-1.54776
H	-0.489425	1.94155	1.17647
H	-0.0422389	-0.555006	2.25464
H	0.451369	-2.18177	0.0806667
C	4.84263	0.902257	-0.139754
C	4.0809	0.622501	0.974992
N	3.33775	-0.495696	0.79094
C	3.63731	-0.908071	-0.43333
N	4.54025	-0.0986068	-1.03587
H	5.55472	1.71561	-0.351698
H	4.05423	1.20747	1.90878
H	3.22446	-1.79656	-0.937693
H	4.93481	-0.211862	-2.00167
