18
  This energy is -0.6179 and Call times are: 153426
C	-0.602905	-0.89373	0.352353
C	0.644092	-0.61897	0.831811
C	1.06983	0.566112	0.157687
C	0.0454155	0.910923	-0.674208
O	-0.98434	0.0303578	-0.568288
H	-1.31232	-1.70545	0.582773
H	1.2076	-1.19321	1.58467
H	2.02906	1.09339	0.283952
H	-0.0716255	1.74813	-1.38176
C	5.22034	0.881334	0.0218131
C	5.81122	0.326652	-1.09368
N	6.66106	-0.671779	-0.75102
C	6.59764	-0.736252	0.572024
N	5.74267	0.17977	1.08538
H	4.48949	1.6984	0.130432
H	5.63956	0.628988	-2.13962
H	7.1562	-1.43551	1.21489
H	5.5201	0.32742	2.10022
