18
  This energy is -1.3323 and Call times are: 66830
C	0.838306	-0.686854	-0.334477
C	-0.145749	-1.09623	0.516654
C	-1.00166	0.0329724	0.696759
C	-0.465087	1.0327	-0.0602115
O	0.65898	0.610648	-0.696888
H	1.71041	-1.21609	-0.75233
H	-0.257676	-2.09334	0.971983
H	-1.90916	0.0854374	1.31949
H	-0.783905	2.07464	-0.227467
C	4.89928	0.0436102	-1.13738
C	3.96829	0.832811	-0.495835
N	3.87688	0.511103	0.817427
C	4.74783	-0.473931	0.989942
N	5.38963	-0.792304	-0.159115
H	5.23631	0.0185197	-2.18586
H	3.36092	1.62858	-0.957031
H	4.95536	-0.997862	1.93686
H	6.12135	-1.53451	-0.281483
