18
  This energy is -1.0194 and Call times are: 4127
C	-0.251027	1.07855	0.245186
C	1.03266	0.619991	0.197772
C	0.940815	-0.765464	-0.137187
C	-0.390887	-1.03123	-0.264893
O	-1.13341	0.0835477	-0.0347958
H	-0.662937	2.07749	0.463611
H	1.95201	1.19925	0.380358
H	1.7748	-1.47397	-0.265943
H	-0.930589	-1.96002	-0.512532
C	7.53218	0.998147	0.324923
C	6.40479	0.43986	0.88923
N	6.06613	-0.714217	0.264786
C	6.97996	-0.87129	-0.683303
N	7.88602	0.135006	-0.687983
H	8.08914	1.9179	0.564471
H	5.82968	0.849113	1.73576
H	7.03255	-1.70513	-1.40176
H	8.70248	0.23806	-1.33915
