18
  This energy is -0.7478 and Call times are: 164638
C	-0.107663	-0.130293	-1.12153
C	-0.419217	-1.12142	-0.237809
C	-0.155135	-0.585669	1.05963
C	0.294483	0.68556	0.854217
O	0.329862	0.980417	-0.471987
H	-0.152908	-0.0914371	-2.2223
H	-0.797091	-2.12875	-0.475714
H	-0.287546	-1.09502	2.02768
H	0.616682	1.46987	1.5587
C	4.88675	0.200365	1.15647
C	4.8812	-1.02655	0.527342
N	4.76657	-0.886478	-0.815696
C	4.70125	0.422351	-1.01898
N	4.76958	1.12085	0.139042
H	4.96325	0.47444	2.22069
H	4.95786	-2.01031	1.01844
H	4.60303	0.922976	-1.99569
H	4.7391	2.16474	0.242186
