18
  This energy is -1.6803 and Call times are: 38094
C	-0.366074	0.850102	-0.655528
C	0.856052	0.868645	-0.0501872
C	0.950881	-0.357111	0.676895
C	-0.221669	-1.01649	0.451678
O	-1.03776	-0.293784	-0.359931
H	-0.867698	1.57953	-1.31246
H	1.61467	1.66555	-0.109695
H	1.79764	-0.699539	1.2932
H	-0.59135	-1.99258	0.80641
C	4.84365	1.06436	0.48125
C	5.30272	-0.137179	0.977954
N	4.95676	-1.16567	0.166148
C	4.28563	-0.604319	-0.830388
N	4.19022	0.738709	-0.686298
H	4.93274	2.09376	0.863258
H	5.87736	-0.280389	1.90754
H	3.84241	-1.13022	-1.69133
H	3.70998	1.40498	-1.33953
