18
  This energy is -1.2083 and Call times are: 151634
C	1.01101	0.423872	0.29086
C	0.241112	0.978195	-0.68912
C	-0.937877	0.175145	-0.761314
C	-0.784369	-0.79902	0.180923
O	0.400166	-0.662386	0.833013
H	1.99922	0.704483	0.690786
H	0.479522	1.86375	-1.29989
H	-1.79533	0.314275	-1.43919
H	-1.4366	-1.63577	0.480399
C	5.57084	0.810437	-0.809278
C	6.37808	0.361017	0.214207
N	5.74525	-0.577319	0.959569
C	4.54997	-0.709514	0.400612
N	4.39604	0.105814	-0.669498
H	5.74348	1.55692	-1.6008
H	7.40579	0.697014	0.428177
H	3.74925	-1.38886	0.734628
H	3.54408	0.18593	-1.27696
