18
  This energy is -1.9226 and Call times are: 125641
C	0.430451	-1.00734	-0.293898
C	0.352886	0.0369159	-1.1679
C	-0.237169	1.11407	-0.438732
C	-0.46809	0.632959	0.816489
O	-0.0664584	-0.661034	0.922722
H	0.813053	-2.03422	-0.413822
H	0.678516	0.0476106	-2.22049
H	-0.459991	2.12597	-0.813563
H	-0.906491	1.10483	1.71113
C	4.46415	0.686806	-0.953559
C	5.10989	0.878807	0.249478
N	4.80844	-0.107403	1.1287
C	3.97884	-0.908176	0.473599
N	3.73995	-0.472353	-0.785996
H	4.46857	1.27345	-1.88596
H	5.7879	1.71127	0.498804
H	3.51684	-1.82715	0.868913
H	3.12099	-0.930227	-1.49908
