18
  This energy is -0.782 and Call times are: 181203
C	0.310568	-0.265754	1.05798
C	-0.893871	0.30708	0.772389
C	-0.915318	0.486585	-0.644451
C	0.277908	0.00759782	-1.0996
O	1.03905	-0.455817	-0.0734775
H	0.761685	-0.581988	2.01283
H	-1.68759	0.576224	1.48769
H	-1.72897	0.922577	-1.24609
H	0.699185	-0.0588737	-2.11614
C	4.9394	0.895709	-0.0655091
C	4.63818	-0.449487	-0.0947441
N	5.75989	-1.20363	0.00296445
C	6.75321	-0.329608	0.0924748
N	6.31002	0.949386	0.055769
H	4.29684	1.7888	-0.120588
H	3.63157	-0.88939	-0.184588
H	7.824	-0.572027	0.186673
H	6.89841	1.81667	0.109466
