18
  This energy is -0.6777 and Call times are: 84631
C	0.676563	-0.401145	-0.817157
C	1.08013	0.565738	0.0561394
C	-0.0322671	0.800714	0.920709
C	-1.0174	-0.0433213	0.499417
O	-0.601807	-0.78478	-0.561023
H	1.19782	-0.894071	-1.65416
H	2.0626	1.06355	0.0882752
H	-0.0837607	1.51693	1.75645
H	-2.04394	-0.209301	0.865379
C	5.18273	0.311184	-0.5034
C	5.36572	-0.652258	0.465846
N	6.67062	-0.74884	0.818585
C	7.29477	0.151262	0.0710113
N	6.4411	0.816546	-0.742762
H	4.27631	0.661262	-1.02244
H	4.57957	-1.27941	0.916949
H	8.37587	0.364302	0.0794882
H	6.69033	1.57317	-1.42589
