18
  This energy is -0.6773 and Call times are: 35994
C	-1.04576	-0.229683	-0.37422
C	-0.682622	-0.400139	0.92941
C	0.68939	-0.010723	1.00723
C	1.04355	0.363324	-0.255713
O	-0.00388656	0.235967	-1.11225
H	-2.0019	-0.401541	-0.895286
H	-1.31725	-0.763636	1.75355
H	1.33003	-0.0122604	1.90371
H	1.99643	0.7333	-0.668499
C	4.87065	-0.470555	-0.32265
C	5.54856	-0.692901	0.85724
N	6.70465	0.013062	0.897045
C	6.74379	0.670867	-0.253774
N	5.66053	0.412708	-1.02416
H	3.91394	-0.865199	-0.700145
H	5.2242	-1.35006	1.68051
H	7.54248	1.35489	-0.583086
H	5.46048	0.809749	-1.97474
