18
  This energy is -0.8729 and Call times are: 14845
C	-0.915342	0.348041	-0.572204
C	0.322214	0.883013	-0.778688
C	1.19938	0.195532	0.114659
C	0.420412	-0.69886	0.788193
O	-0.87388	-0.61943	0.381365
H	-1.89244	0.566285	-1.03361
H	0.590486	1.68164	-1.48885
H	2.28297	0.355147	0.23486
H	0.663799	-1.43718	1.56979
C	7.49465	0.0536156	-1.06656
C	7.47377	1.0494	-0.113074
N	6.81656	0.645372	1.00108
C	6.43118	-0.596334	0.739787
N	6.81595	-0.999113	-0.494439
H	7.92992	0.0207219	-2.07799
H	7.92115	2.05213	-0.209108
H	5.86469	-1.25576	1.4169
H	6.63225	-1.93502	-0.932147
