18
  This energy is -1.0923 and Call times are: 12040
C	-1.05514	-0.175947	0.377005
C	-0.0433035	0.225571	1.1988
C	1.11381	0.336578	0.368817
C	0.70693	-0.00690415	-0.886906
O	-0.614814	-0.322853	-0.900316
H	-2.11824	-0.388709	0.576473
H	-0.10552	0.423702	2.28092
H	2.12713	0.637889	0.679463
H	1.25384	-0.0652113	-1.84228
C	5.86087	0.635883	0.816193
C	5.9616	-0.724219	0.613411
N	5.17492	-1.12452	-0.414893
C	4.58839	-0.0169631	-0.848393
N	4.96926	1.07144	-0.138538
H	6.34444	1.30241	1.54793
H	6.58782	-1.42385	1.19066
H	3.87152	0.0536833	-1.68226
H	4.6468	2.05896	-0.287144
