18
  This energy is -0.7053 and Call times are: 5858
C	0.966489	0.120003	-0.581291
C	0.231917	-1.02877	-0.614609
C	-0.895659	-0.796498	0.230815
C	-0.750593	0.473702	0.706128
O	0.3812	1.04828	0.22042
H	1.91097	0.398486	-1.07692
H	0.461103	-1.94754	-1.17801
H	-1.71455	-1.49938	0.453232
H	-1.37502	1.07536	1.38682
C	5.20098	-0.843487	0.717221
C	4.78654	-0.590097	-0.573197
N	5.46051	0.45798	-1.10595
C	6.2899	0.853285	-0.149667
N	6.17159	0.100173	0.969447
H	4.88446	-1.60321	1.44946
H	4.01331	-1.14474	-1.12936
H	7.00529	1.68878	-0.215983
H	6.71559	0.213525	1.85965
