18
  This energy is -1.3226 and Call times are: 127007
C	-0.4009	1.04559	-0.180037
C	0.217777	0.690672	0.982565
C	0.574973	-0.683998	0.83153
C	0.143042	-1.04776	-0.410035
O	-0.455291	-0.003833	-1.04187
H	-0.840534	2.00034	-0.512341
H	0.403931	1.33251	1.85863
H	1.09314	-1.31991	1.56721
H	0.200411	-2.00573	-0.95249
C	3.81852	-0.0105338	-0.46409
C	4.22481	0.656063	0.672447
N	5.54147	0.447936	0.916622
C	5.95043	-0.344762	-0.0647038
N	4.94857	-0.649631	-0.923143
H	2.83791	-0.0732497	-0.962091
H	3.59151	1.28345	1.32064
H	6.97288	-0.731853	-0.20248
H	5.01919	-1.25711	-1.77593
