18
  This energy is -0.4952 and Call times are: 3253
C	0.747534	-0.457845	-0.719703
C	1.12558	0.119358	0.456858
C	-0.0796223	0.572825	1.07491
C	-1.08775	0.232698	0.221465
O	-0.600712	-0.397534	-0.879722
H	1.33381	-0.940207	-1.51899
H	2.15033	0.216097	0.850073
H	-0.175093	1.09106	2.04259
H	-2.17839	0.381289	0.28213
C	7.17248	0.0530942	-1.02691
C	7.73313	-0.045895	0.228882
N	6.77751	-0.0841787	1.189
C	5.62838	-0.00922456	0.531344
N	5.81324	0.075163	-0.807423
H	7.62932	0.107578	-2.02784
H	8.81005	-0.0903772	0.459348
H	4.62234	-0.0120594	0.980906
H	5.0639	0.14424	-1.53885
