18
  This energy is -1.0421 and Call times are: 88463
C	0.114888	-1.02667	-0.468133
C	-1.10392	-0.492904	-0.168189
C	-0.839664	0.791671	0.397631
C	0.517304	0.92949	0.393503
O	1.11624	-0.171587	-0.131773
H	0.399642	-1.99238	-0.917094
H	-2.09013	-0.957186	-0.329227
H	-1.58024	1.52139	0.76252
H	1.16975	1.75114	0.731826
C	4.87725	0.444867	-1.06657
C	5.92326	-0.382714	-0.717112
N	5.87357	-0.704097	0.59847
C	4.80081	-0.0782725	1.06339
N	4.16588	0.627979	0.0981646
H	4.59808	0.901231	-2.02955
H	6.71292	-0.75367	-1.39067
H	4.43477	-0.10312	2.10245
H	3.29721	1.20509	0.214832
