18
  This energy is -1.5343 and Call times are: 180755
C	-0.622984	0.0301534	0.947303
C	0.618266	0.590409	0.871236
C	1.07483	0.349947	-0.460623
C	0.0722704	-0.336024	-1.08086
O	-0.972377	-0.540064	-0.235824
H	-1.34882	-0.0292772	1.77488
H	1.1582	1.11989	1.67262
H	2.03913	0.655923	-0.897193
H	-0.0183063	-0.730034	-2.10644
C	4.4436	-0.817687	0.63789
C	5.46529	-1.02572	-0.264346
N	5.8717	0.14157	-0.820012
C	5.10506	1.07023	-0.264608
N	4.22771	0.542204	0.62141
H	3.8739	-1.51777	1.26944
H	5.91646	-1.99717	-0.524313
H	5.14415	2.15201	-0.470661
H	3.51819	1.06847	1.18788
