18
  This energy is -0.5941 and Call times are: 83959
C	0.421498	1.04061	-0.160828
C	1.20554	-0.0753783	-0.175758
C	0.325029	-1.175	0.0601598
C	-0.919345	-0.633901	0.198429
O	-0.879033	0.718117	0.06639
H	0.665047	2.10709	-0.297085
H	2.29467	-0.119784	-0.336751
H	0.595734	-2.2415	0.118451
H	-1.90093	-1.09744	0.390428
C	7.16166	0.188492	0.00997909
C	6.17051	1.13739	-0.125459
N	4.94121	0.567899	-0.0936972
C	5.16888	-0.729369	0.0608566
N	6.49207	-1.00889	0.128749
H	8.25949	0.277591	0.0295926
H	6.32038	2.22274	-0.245524
H	4.40301	-1.51858	0.13033
H	6.92535	-1.95709	0.248961
