18
  This energy is -1.6334 and Call times are: 92055
C	0.611432	-0.896075	-0.331061
C	0.838503	-0.253022	0.850165
C	-0.118352	0.805781	0.909174
C	-0.845676	0.716279	-0.241201
O	-0.413597	-0.317461	-1.01042
H	1.10349	-1.76596	-0.796291
H	1.60311	-0.499546	1.60429
H	-0.243136	1.54341	1.71814
H	-1.68499	1.31962	-0.624327
C	4.11394	-0.178158	-1.09741
C	3.76124	0.853528	-0.253391
N	4.39721	0.748738	0.938695
C	5.14162	-0.343802	0.834608
N	5.00566	-0.938504	-0.37429
H	3.80383	-0.417103	-2.12711
H	3.05928	1.67161	-0.483235
H	5.80485	-0.753443	1.61343
H	5.48769	-1.81232	-0.698881
