18
  This energy is -0.9046 and Call times are: 137950
C	1.07635	-0.0123686	-0.357375
C	0.215421	-1.04289	-0.596542
C	-1.02524	-0.662397	0.000199414
C	-0.81294	0.567049	0.551348
O	0.465095	0.97938	0.342491
H	2.13473	0.134068	-0.62875
H	0.432272	-1.97726	-1.13879
H	-1.96158	-1.2431	0.0126221
H	-1.48082	1.2429	1.11028
C	5.4928	0.00725835	1.15849
C	6.57646	0.558582	0.508211
N	6.49333	0.365002	-0.830493
C	5.3624	-0.30387	-1.01002
N	4.72251	-0.543896	0.158961
H	5.22424	-0.0306127	2.22619
H	7.41681	1.09257	0.981
H	4.95561	-0.642715	-1.97642
H	3.81291	-1.05287	0.280692
