18
  This energy is -1.1379 and Call times are: 101890
C	0.538763	0.989846	0.127831
C	-0.588125	0.864159	-0.630258
C	-0.964152	-0.511249	-0.54674
C	-0.0338529	-1.10464	0.255012
O	0.891503	-0.202684	0.675974
H	1.17462	1.86163	0.353502
H	-1.10293	1.66015	-1.19193
H	-1.82847	-0.993692	-1.03078
H	0.0788008	-2.1466	0.596891
C	4.02887	0.140322	-0.649847
C	5.1786	-0.528152	-1.01373
N	6.09919	-0.493669	-0.0198307
C	5.52276	0.193585	0.956919
N	4.27357	0.597808	0.625698
H	3.08534	0.316959	-1.1903
H	5.36035	-1.03472	-1.9756
H	5.97059	0.429879	1.93562
H	3.61661	1.15378	1.22616
