18
  This energy is -1.3 and Call times are: 111326
C	0.367913	-0.136519	-1.06414
C	0.862194	0.830356	-0.238788
C	0.160535	0.685805	0.99689
C	-0.700577	-0.356643	0.817556
O	-0.587373	-0.870761	-0.435393
H	0.609477	-0.401502	-2.10659
H	1.64261	1.57106	-0.476295
H	0.288766	1.29214	1.90793
H	-1.4353	-0.822755	1.49444
C	4.37048	0.567782	0.81635
C	5.33944	-0.388358	1.03559
N	5.86161	-0.831914	-0.133646
C	5.21904	-0.153524	-1.07466
N	4.30967	0.703283	-0.552639
H	3.74092	1.1422	1.51436
H	5.67111	-0.766102	2.01648
H	5.37532	-0.245215	-2.16159
H	3.67853	1.34798	-1.08864
