18
  This energy is -0.5543 and Call times are: 171042
C	-0.862152	0.717573	0.167884
C	-1.00234	-0.4397	-0.540242
C	0.283516	-1.06148	-0.531756
C	1.09596	-0.229282	0.180806
O	0.412836	0.862158	0.61567
H	-1.58342	1.51208	0.420439
H	-1.91926	-0.817593	-1.0204
H	0.561792	-2.01732	-1.00402
H	2.16385	-0.29992	0.445169
C	7.36645	-0.156432	0.00283571
C	6.52809	-0.202014	-1.09088
N	5.24142	0.0232294	-0.73
C	5.2814	0.207844	0.582609
N	6.54019	0.109402	1.07186
H	8.45622	-0.289901	0.0930718
H	6.82858	-0.39339	-2.13392
H	4.41838	0.418264	1.23464
H	6.83127	0.215389	2.0745
