18
  This energy is -0.7896 and Call times are: 175783
C	0.986851	-0.558693	-0.0196888
C	-0.216342	-1.20111	-0.0203999
C	-1.20816	-0.173688	0.00808867
C	-0.523502	1.00588	0.0236934
O	0.81812	0.789574	0.00707036
H	2.02031	-0.942008	-0.03654
H	-0.388199	-2.28933	-0.0391081
H	-2.30191	-0.30692	0.0158606
H	-0.870062	2.05212	0.0464812
C	6.42714	0.306405	-0.656974
C	5.81778	-0.929598	-0.611022
N	4.77607	-0.92888	0.255789
C	4.73933	0.302884	0.745719
N	5.71448	1.08593	0.226566
H	7.28876	0.674163	-1.23656
H	6.11111	-1.82187	-1.18779
H	4.01922	0.684834	1.48719
H	5.89353	2.09467	0.453814
