18
  This energy is -0.9535 and Call times are: 194297
C	0.524271	0.630623	-0.783489
C	-0.277669	1.17553	0.175857
C	-0.747296	0.079267	0.961849
C	-0.19088	-1.03877	0.413426
O	0.588657	-0.720653	-0.653407
H	1.09811	1.09076	-1.60461
H	-0.514729	2.24242	0.31597
H	-1.42087	0.127198	1.83254
H	-0.27048	-2.10397	0.685939
C	5.71187	-0.531132	-0.281259
C	4.50881	-1.14101	0.0047934
N	3.5513	-0.22449	0.287064
C	4.15804	0.949507	0.176545
N	5.46191	0.817957	-0.164345
H	6.69539	-0.947784	-0.550758
H	4.31455	-2.22593	0.0125611
H	3.69449	1.93665	0.334365
H	6.15111	1.59551	-0.311539
