18
  This energy is -0.7212 and Call times are: 125577
C	1.06129	0.0833495	-0.391298
C	0.534844	-1.09619	0.0467703
C	-0.801961	-0.800525	0.453771
C	-0.974406	0.533598	0.228486
O	0.15341	1.08932	-0.287471
H	2.05571	0.334952	-0.795129
H	1.03746	-2.07618	0.0799727
H	-1.5419	-1.50569	0.865278
H	-1.84002	1.1966	0.390956
C	5.20662	-0.74939	-0.761634
C	5.04739	0.619766	-0.72696
N	5.76295	1.16945	0.28414
C	6.36382	0.145205	0.87448
N	6.06023	-1.03339	0.280907
H	4.78691	-1.51614	-1.43206
H	4.42901	1.22082	-1.41339
H	7.03674	0.201996	1.74522
H	6.4087	-1.98267	0.561427
