18
  This energy is -0.9652 and Call times are: 170626
C	-0.840675	-0.49346	0.579796
C	-0.244584	0.660187	0.997106
C	0.751295	0.961819	0.0186578
C	0.675857	-0.0341311	-0.910194
O	-0.291014	-0.93155	-0.583373
H	-1.65568	-1.09437	1.0156
H	-0.48232	1.24054	1.90307
H	1.43922	1.82254	0.0151579
H	1.24652	-0.215352	-1.8358
C	5.97908	-0.584528	-0.520227
C	5.22817	-1.00611	0.556591
N	4.29819	-0.0806809	0.896056
C	4.47152	0.911243	0.0331131
N	5.47322	0.655303	-0.841342
H	6.80992	-1.06309	-1.06265
H	5.34075	-1.96145	1.09465
H	3.89247	1.84806	-0.00317002
H	5.8019	1.28194	-1.6163
