18
  This energy is -1.2078 and Call times are: 79066
C	-0.297303	0.203108	1.07553
C	-0.38165	-1.03809	0.516338
C	0.0744363	-0.892475	-0.829359
C	0.39723	0.424848	-0.973711
O	0.176439	1.10876	0.179774
H	-0.540533	0.567264	2.0872
H	-0.730088	-1.96337	1.00269
H	0.149927	-1.68241	-1.59382
H	0.788599	0.991611	-1.83444
C	3.84513	-0.503697	-0.136496
C	4.32627	0.602922	-0.803613
N	5.58223	0.910255	-0.397893
C	5.87913	-0.00223438	0.517441
N	4.86414	-0.877414	0.710937
H	2.88184	-1.03402	-0.202623
H	3.78966	1.18509	-1.57041
H	6.82559	-0.0757229	1.07695
H	4.85516	-1.6865	1.37919
