18
  This energy is -0.8594 and Call times are: 136417
C	-0.52401	-0.889342	0.469984
C	-1.01444	0.380026	0.562473
C	-0.0902628	1.2087	-0.144141
C	0.883338	0.372575	-0.606055
O	0.634454	-0.912439	-0.240256
H	-0.900617	-1.8489	0.860716
H	-1.93469	0.700657	1.0767
H	-0.151493	2.29958	-0.286703
H	1.79263	0.566042	-1.19851
C	6.07129	-0.339609	-0.571277
C	5.21338	-1.14135	0.151458
N	4.19527	-0.418019	0.677535
C	4.42072	0.827725	0.282664
N	5.54006	0.927001	-0.472849
H	6.99154	-0.572981	-1.13004
H	5.31079	-2.22877	0.302739
H	3.79785	1.70565	0.5183
H	5.92912	1.80211	-0.901892
