18
  This energy is -1.0711 and Call times are: 116538
C	-0.386114	-0.182434	-1.05073
C	0.944784	-0.0870243	-0.767918
C	1.03006	0.14104	0.639502
C	-0.256247	0.164864	1.0925
O	-1.13419	-0.0310227	0.0737521
H	-0.921581	-0.354122	-1.99891
H	1.78243	-0.16902	-1.47906
H	1.94698	0.271029	1.23655
H	-0.673055	0.310506	2.1026
C	5.81495	-1.11248	0.383742
C	6.80757	-0.467654	-0.323399
N	6.45652	0.811085	-0.602867
C	5.2507	0.95899	-0.0711232
N	4.81998	-0.172633	0.535091
H	5.74841	-2.1394	0.776859
H	7.77075	-0.902186	-0.636949
H	4.63843	1.8748	-0.0965888
H	3.90282	-0.308226	1.02673
