18
  This energy is -1.4956 and Call times are: 210742
C	0.384754	-0.295408	1.02523
C	0.692433	0.900668	0.446343
C	0.0323075	0.903315	-0.820284
C	-0.620491	-0.291375	-0.903599
O	-0.416233	-1.03606	0.214761
H	0.669269	-0.732191	1.99658
H	1.32117	1.70081	0.868889
H	0.0474668	1.70592	-1.57506
H	-1.25448	-0.724475	-1.69464
C	4.83121	-0.631775	0.83891
C	4.48566	0.701599	0.900983
N	3.88761	1.10529	-0.246136
C	3.86225	0.0264648	-1.01692
N	4.41936	-1.04692	-0.407776
H	5.32459	-1.29256	1.56931
H	4.65716	1.37956	1.75292
H	3.4475	-0.0329752	-2.03608
H	4.51866	-2.01159	-0.80878
