18
  This energy is -0.5881 and Call times are: 92151
C	-0.666769	0.916828	-0.0353195
C	0.483213	0.877776	0.697067
C	1.0347	-0.423405	0.489916
C	0.173037	-1.06462	-0.350771
O	-0.871766	-0.260954	-0.681708
H	-1.41641	1.71251	-0.177387
H	0.901209	1.68434	1.32063
H	1.96529	-0.82628	0.920934
H	0.190735	-2.0794	-0.781069
C	6.09217	-0.511987	-1.0542
C	5.06972	-0.106532	-0.22272
N	5.55544	0.445728	0.915525
C	6.87419	0.383118	0.790657
N	7.24769	-0.186086	-0.379853
H	6.07967	-0.99332	-2.04501
H	3.99027	-0.202591	-0.423728
H	7.61305	0.739467	1.52641
H	8.23031	-0.348245	-0.710655
