18
  This energy is -1.1669 and Call times are: 111262
C	0.0326893	0.755275	-0.845512
C	-0.706171	0.954358	0.283569
C	-0.492969	-0.198948	1.09877
C	0.357356	-1.00099	0.395879
O	0.68869	-0.433847	-0.793903
H	0.173478	1.3755	-1.74593
H	-1.33795	1.82593	0.518779
H	-0.926575	-0.39937	2.0917
H	0.794795	-1.98547	0.62973
C	5.64895	-0.648401	0.253299
C	5.01957	0.256183	1.082
N	3.95525	0.825179	0.465568
C	3.92448	0.275674	-0.740964
N	4.9251	-0.619368	-0.917762
H	6.53129	-1.28936	0.40885
H	5.31436	0.508466	2.11365
H	3.19083	0.492622	-1.53401
H	5.11358	-1.18368	-1.78222
