18
  This energy is -0.8068 and Call times are: 77986
C	0.98847	-0.543524	-0.117936
C	0.0235366	-0.565058	-1.08169
C	-1.05448	0.222052	-0.573291
C	-0.653136	0.655094	0.656251
O	0.592088	0.196995	0.950486
H	1.987	-1.00842	-0.0726107
H	0.0665681	-1.08324	-2.05315
H	-2.01345	0.435486	-1.0722
H	-1.15455	1.28539	1.40896
C	5.49556	0.926209	-0.699275
C	5.85787	0.797978	0.624898
N	5.47448	-0.402904	1.1223
C	4.8766	-1.01733	0.110542
N	4.86369	-0.257169	-1.00998
H	5.63792	1.7484	-1.41849
H	6.38904	1.55045	1.23029
H	4.4306	-2.02465	0.135626
H	4.45097	-0.519315	-1.93853
