18
  This energy is -1.3074 and Call times are: 156464
C	0.277547	0.748993	0.805219
C	0.50059	-0.589382	0.944418
C	0.0240148	-1.19248	-0.259438
C	-0.448186	-0.169406	-1.02802
O	-0.301291	1.02336	-0.393398
H	0.482618	1.59817	1.47759
H	0.95512	-1.10065	1.80819
H	0.035571	-2.26431	-0.514638
H	-0.906222	-0.159372	-2.0307
C	5.37763	-0.307151	0.82828
C	4.08148	0.118882	1.02737
N	3.46953	0.389244	-0.151166
C	4.38257	0.131913	-1.07786
N	5.55009	-0.290972	-0.537802
H	6.16328	-0.610578	1.53837
H	3.5769	0.236025	2.00027
H	4.24899	0.236165	-2.16667
H	6.42079	-0.556021	-1.0602
