18
  This energy is -1.3409 and Call times are: 19251
C	0.295962	0.22179	1.0722
C	-0.928541	-0.27966	0.741275
C	-0.921978	-0.421239	-0.680002
C	0.305957	0.00619203	-1.09213
O	1.06279	0.40254	-0.0351905
H	0.737557	0.489274	2.04621
H	-1.75364	-0.525219	1.42903
H	-1.74098	-0.798394	-1.31332
H	0.756685	0.0766829	-2.09569
C	4.0035	-0.893567	0.318615
C	4.02925	-0.260408	-0.905962
N	4.95587	0.728282	-0.925449
C	5.50289	0.708554	0.282446
N	4.96273	-0.251704	1.06967
H	3.39089	-1.72766	0.696159
H	3.39583	-0.49927	-1.77577
H	6.30273	1.37511	0.643257
H	5.22472	-0.466364	2.06292
