18
  This energy is -1.3289 and Call times are: 58296
C	0.383678	-0.189653	1.05034
C	-0.744558	0.536423	0.804843
C	-0.897685	0.55284	-0.615157
C	0.150495	-0.164653	-1.11204
O	0.943172	-0.625585	-0.10894
H	0.886154	-0.463696	1.99251
H	-1.40292	1.01267	1.54905
H	-1.69838	1.04435	-1.19083
H	0.439911	-0.415853	-2.14567
C	4.07845	-0.633113	0.680906
C	4.06411	0.734646	0.507196
N	5.03773	1.12867	-0.349149
C	5.65373	0.00961316	-0.705337
N	5.11242	-1.0801	-0.111121
H	3.44711	-1.29783	1.29172
H	3.36869	1.44422	0.984423
H	6.50691	-0.0688635	-1.39827
H	5.42148	-2.07578	-0.230929
