18
  This energy is -0.6067 and Call times are: 142590
C	-0.366849	0.330554	1.02106
C	-1.21151	0.144918	-0.0336769
C	-0.38804	-0.263821	-1.12681
C	0.887135	-0.291878	-0.643583
O	0.918652	0.0682885	0.666493
H	-0.554084	0.643582	2.06135
H	-2.30478	0.282058	-0.0411664
H	-0.715899	-0.506601	-2.15037
H	1.84567	-0.54757	-1.12428
C	6.73513	-0.217785	-0.515907
C	6.38014	-0.511712	0.783606
N	5.10862	-0.12128	1.04301
C	4.67643	0.412829	-0.091256
N	5.62026	0.378418	-1.06161
H	7.671	-0.385111	-1.07241
H	7.01871	-0.998502	1.53866
H	3.67749	0.843871	-0.266033
H	5.52157	0.737495	-2.04272
