18
  This energy is -0.5876 and Call times are: 152466
C	1.02852	0.468688	-0.0941761
C	0.307956	0.0643256	-1.17937
C	-0.913522	-0.465535	-0.662303
C	-0.831552	-0.338187	0.693218
O	0.347788	0.230422	1.05771
H	2.02431	0.934044	-0.00987205
H	0.606626	0.132348	-2.2378
H	-1.75021	-0.890013	-1.24012
H	-1.53533	-0.610079	1.49697
C	6.01339	-0.802051	-0.861178
C	4.92387	-0.409486	-0.11286
N	5.26918	0.536547	0.793941
C	6.56799	0.730139	0.608882
N	7.06338	-0.0535018	-0.378077
H	6.11254	-1.53662	-1.67611
H	3.89481	-0.791919	-0.211016
H	7.20515	1.43374	1.16853
H	8.05784	-0.0848761	-0.711712
