18
  This energy is -0.9901 and Call times are: 160731
C	-0.368612	-1.04355	-0.248066
C	-1.09687	-0.171954	0.507141
C	-0.311849	1.01791	0.597081
C	0.826828	0.768383	-0.111105
O	0.809056	-0.485847	-0.634176
H	-0.57511	-2.07529	-0.576866
H	-2.0875	-0.349142	0.955867
H	-0.572803	1.94668	1.12941
H	1.71261	1.39221	-0.314762
C	4.35382	-0.493512	0.216892
C	4.85689	0.660538	0.779234
N	6.09388	0.938379	0.3005
C	6.35719	-0.0395871	-0.555579
N	5.33902	-0.928159	-0.641386
H	3.39638	-1.01871	0.3619
H	4.34947	1.29768	1.52181
H	7.28034	-0.153418	-1.14641
H	5.30634	-1.78495	-1.24645
