18
  This energy is -1.3362 and Call times are: 181651
C	0.205923	1.07388	0.301289
C	0.969575	0.413257	-0.615654
C	0.405425	-0.894373	-0.724994
C	-0.65317	-0.917389	0.134785
O	-0.78969	0.276314	0.769961
H	0.26689	2.0996	0.700589
H	1.84258	0.80725	-1.16039
H	0.754051	-1.71581	-1.37136
H	-1.37716	-1.71111	0.381948
C	5.25037	1.052	-0.274867
C	5.25611	0.447608	0.964414
N	4.64948	-0.763408	0.920256
C	4.26885	-0.909738	-0.34162
N	4.60815	0.157973	-1.10218
H	5.64469	2.02267	-0.615241
H	5.6871	0.863659	1.88962
H	3.73824	-1.77899	-0.76245
H	4.41819	0.28126	-2.12687
