18
  This energy is -0.8575 and Call times are: 110442
C	0.27824	1.07954	0.208773
C	0.956255	0.311516	-0.69168
C	0.318532	-0.966419	-0.674136
C	-0.692891	-0.866515	0.235488
O	-0.732136	0.376124	0.784415
H	0.414553	2.12649	0.525867
H	1.81893	0.614507	-1.30657
H	0.588448	-1.85126	-1.27271
H	-1.44391	-1.59768	0.576992
C	6.17193	-0.788205	-0.0597491
C	5.3744	-0.517641	1.03199
N	4.46957	0.450481	0.748183
C	4.70488	0.779263	-0.514812
N	5.72191	0.0604664	-1.04638
H	7.00023	-1.50084	-0.199715
H	5.43565	-1.00364	2.01936
H	4.16214	1.53976	-1.09903
H	6.09631	0.135385	-2.02386
