18
  This energy is -0.9216 and Call times are: 60947
C	0.228274	-0.097546	1.1067
C	-0.713104	-0.86394	0.484746
C	-0.709124	-0.45426	-0.883561
C	0.234335	0.526318	-0.976973
O	0.816814	0.757068	0.229047
H	0.568405	-0.0647421	2.15478
H	-1.34675	-1.63992	0.943498
H	-1.33907	-0.849441	-1.69664
H	0.580004	1.12915	-1.83275
C	4.42649	0.207676	1.12568
C	4.85173	-0.986967	0.584256
N	5.07719	-0.867475	-0.746684
C	4.79289	0.396491	-1.02986
N	4.39589	1.08617	0.0657286
H	4.15261	0.485571	2.15588
H	4.9999	-1.93297	1.13012
H	4.85824	0.869222	-2.02308
H	4.11777	2.09744	0.101006
