18
  This energy is -1.2417 and Call times are: 92484
C	0.565977	0.977216	0.105453
C	0.842637	-0.113898	0.875716
C	-0.0664822	-1.13135	0.453334
C	-0.818437	-0.572172	-0.537754
O	-0.445761	0.715171	-0.763299
H	1.01132	1.98529	0.0788703
H	1.60994	-0.194212	1.66242
H	-0.144203	-2.15738	0.847433
H	-1.63804	-0.979785	-1.15204
C	5.03787	1.08719	-0.10667
C	4.60619	0.479063	1.05306
N	4.1622	-0.777958	0.809588
C	4.31784	-0.948999	-0.496224
N	4.84246	0.147087	-1.09369
H	5.45633	2.089	-0.293222
H	4.60715	0.92479	2.06112
H	4.06396	-1.8572	-1.06627
H	5.05908	0.25937	-2.11434
