18
  This energy is -1.624 and Call times are: 144371
C	0.738918	0.855321	-0.0939513
C	0.766864	-0.228328	-0.921778
C	-0.30274	-1.07359	-0.495628
C	-0.889883	-0.431846	0.554992
O	-0.266556	0.747716	0.814044
H	1.37114	1.75726	-0.0486863
H	1.47014	-0.413843	-1.74948
H	-0.593656	-2.04476	-0.927227
H	-1.74591	-0.706001	1.1932
C	4.64902	-0.518597	-0.832091
C	6.002	-0.678962	-0.620236
N	6.42494	0.0708416	0.426388
C	5.33848	0.693994	0.862173
N	4.24179	0.371764	0.136211
H	3.96983	-0.960327	-1.57849
H	6.68056	-1.32225	-1.20383
H	5.28978	1.39712	1.70922
H	3.267	0.73162	0.28301
