18
  This energy is -0.8871 and Call times are: 97577
C	0.485097	0.983286	-0.290225
C	1.19719	-0.0566638	0.231125
C	0.250791	-1.10083	0.46385
C	-0.956083	-0.606785	0.06417
O	-0.831603	0.664773	-0.399138
H	0.794397	1.98879	-0.619691
H	2.28025	-0.0855805	0.431695
H	0.454189	-2.1003	0.880736
H	-1.9636	-1.05414	0.0585176
C	5.62986	-0.709337	0.910549
C	5.00829	0.520595	0.956048
N	4.90691	1.06293	-0.281736
C	5.46347	0.172827	-1.09204
N	5.91476	-0.913364	-0.421138
H	5.88122	-1.42981	1.70508
H	4.63117	1.02637	1.85983
H	5.56685	0.266158	-2.18513
H	6.39097	-1.75129	-0.83631
