18
  This energy is -0.8022 and Call times are: 211190
C	0.235327	0.916965	-0.624657
C	-0.769273	0.899692	0.297761
C	-0.753153	-0.409353	0.868953
C	0.259874	-1.07646	0.245159
O	0.874359	-0.281612	-0.670067
H	0.59117	1.70945	-1.30333
H	-1.45307	1.72589	0.550587
H	-1.42196	-0.799904	1.6527
H	0.638147	-2.10538	0.361242
C	5.51233	-0.895432	0.696954
C	4.23285	-0.550825	0.315742
N	4.24011	0.536584	-0.492961
C	5.51923	0.865325	-0.612989
N	6.32613	0.03216	0.0858203
H	5.88877	-1.70801	1.33848
H	3.30461	-1.06734	0.609734
H	5.9203	1.70697	-1.20037
H	7.37234	0.0830952	0.149875
