18
  This energy is -1.2293 and Call times are: 149820
C	-0.830438	0.740911	-0.218691
C	0.247303	1.05893	0.554427
C	1.05895	-0.115638	0.595932
C	0.405551	-1.04774	-0.155487
O	-0.750208	-0.541753	-0.660674
H	-1.71004	1.33063	-0.524919
H	0.450364	2.02385	1.04616
H	2.01644	-0.242479	1.12624
H	0.655277	-2.09232	-0.403964
C	4.59588	1.14482	-0.181162
C	4.73862	0.51213	1.03559
N	4.9651	-0.814077	0.873122
C	4.96287	-1.00341	-0.439422
N	4.74436	0.147353	-1.11882
H	4.4055	2.19911	-0.437587
H	4.68225	0.98882	2.02777
H	5.11627	-1.96435	-0.956434
H	4.69706	0.258544	-2.16125
