18
  This energy is -0.8944 and Call times are: 50707
C	-1.07871	0.172014	-0.305274
C	-0.579867	-1.07264	-0.0555433
C	0.791639	-0.881214	0.294377
C	1.00983	0.463518	0.227588
O	-0.121624	1.12214	-0.137166
H	-2.08393	0.509914	-0.606296
H	-1.1232	-2.02956	-0.112072
H	1.52312	-1.6602	0.563096
H	1.91293	1.06777	0.413444
C	6.61554	-0.5281	0.273645
C	6.07926	0.593614	0.86972
N	4.89449	0.928679	0.303535
C	4.69653	0.0182926	-0.640197
N	5.70622	-0.882133	-0.697948
H	7.54878	-1.08102	0.465696
H	6.52599	1.16716	1.69817
H	3.82915	-0.0356764	-1.31767
H	5.78195	-1.69506	-1.35724
