18
  This energy is -0.6756 and Call times are: 145331
C	-0.497991	0.15347	-1.0074
C	-1.20267	0.133379	0.160247
C	-0.240391	-0.0796577	1.19405
C	0.967377	-0.170944	0.566886
O	0.828779	-0.0308529	-0.777799
H	-0.819528	0.288727	-2.05314
H	-2.29094	0.25625	0.281405
H	-0.434222	-0.154802	2.27612
H	1.98476	-0.332105	0.959581
C	5.96258	-1.09143	0.435845
C	6.89795	-0.462695	-0.358454
N	6.50204	0.793143	-0.678821
C	5.32552	0.942927	-0.0855238
N	4.95645	-0.16555	0.599058
H	5.94238	-2.09861	0.881629
H	7.8514	-0.892724	-0.706113
H	4.6918	1.84374	-0.119753
H	4.0723	-0.295006	1.14932
