18
  This energy is -0.6006 and Call times are: 49508
C	0.967047	-0.53197	-0.261207
C	-0.159415	-0.649194	-1.02128
C	-1.14984	0.155029	-0.379102
C	-0.541184	0.692708	0.716712
O	0.751932	0.283809	0.80427
H	1.97175	-0.972326	-0.37034
H	-0.280725	-1.24248	-1.94183
H	-2.19175	0.309266	-0.70274
H	-0.914561	1.37135	1.50111
C	6.62417	-0.541653	-0.206834
C	5.52457	-1.06863	0.436836
N	4.51604	-0.165624	0.499931
C	4.98819	0.917431	-0.102308
N	6.25532	0.740972	-0.545971
H	7.61017	-0.97418	-0.439785
H	5.44084	-2.08422	0.856843
H	4.44825	1.86721	-0.245886
H	6.84452	1.44676	-1.05191
