18
  This energy is -1.1888 and Call times are: 197076
C	0.726675	0.0816683	-0.866991
C	0.383233	1.15472	-0.0982337
C	-0.53808	0.659864	0.874607
C	-0.676308	-0.671898	0.61446
O	0.0889321	-1.04215	-0.445886
H	1.40497	-0.0115583	-1.73098
H	0.742622	2.19078	-0.205473
H	-1.03505	1.23597	1.67162
H	-1.27993	-1.45366	1.10408
C	5.68512	0.99941	0.209552
C	6.19851	-0.163748	-0.323965
N	5.24167	-1.11783	-0.427438
C	4.13888	-0.548725	0.0401088
N	4.35439	0.727912	0.436778
H	6.15683	1.9688	0.436048
H	7.24218	-0.331626	-0.636086
H	3.14637	-1.0216	0.114502
H	3.64325	1.3856	0.840499
