18
  This energy is -0.7997 and Call times are: 183319
C	-0.621994	0.879778	-0.35428
C	-1.065	0.00772185	0.596317
C	-0.016988	-0.947097	0.76981
C	0.973935	-0.574227	-0.0900816
O	0.62141	0.539501	-0.784593
H	-1.09023	1.77053	-0.804353
H	-2.03272	0.0341747	1.12256
H	-0.0105769	-1.80814	1.45731
H	1.96391	-1.01201	-0.298756
C	5.5238	0.498977	-0.997292
C	6.83326	0.319176	-0.60468
N	6.90176	-0.290858	0.603491
C	5.6396	-0.488752	0.959044
N	4.77087	-0.0299202	0.0271812
H	5.08897	0.950801	-1.90301
H	7.72982	0.618694	-1.17153
H	5.29533	-0.965083	1.89115
H	3.72334	-0.0695293	0.0758307
