18
  This energy is -1.1734 and Call times are: 154066
C	0.628365	0.782876	-0.527886
C	-0.73502	0.822059	-0.523309
C	-1.1563	-0.314546	0.232181
C	-0.0131717	-0.947956	0.622581
O	1.08623	-0.291475	0.167201
H	1.37745	1.45125	-0.98329
H	-1.37941	1.57574	-1.00375
H	-2.19227	-0.617329	0.453964
H	0.14974	-1.86105	1.21837
C	6.00981	-0.53075	-0.557642
C	5.91607	0.359742	0.490872
N	7.1426	0.775464	0.890012
C	7.99401	0.145272	0.0921477
N	7.36005	-0.654189	-0.798102
H	5.23701	-1.06745	-1.13059
H	4.98541	0.709706	0.966515
H	9.09216	0.232952	0.11662
H	7.81114	-1.25382	-1.53173
