18
  This energy is -0.9515 and Call times are: 157099
C	0.347527	-0.685353	0.834216
C	0.249758	0.665912	0.992003
C	-0.214254	1.1732	-0.259985
C	-0.359075	0.0871446	-1.07232
O	-0.0203912	-1.05624	-0.420412
H	0.66178	-1.48168	1.52874
H	0.481179	1.24714	1.89904
H	-0.414128	2.22594	-0.516659
H	-0.690449	-0.00334799	-2.11982
C	5.13886	-0.515029	0.962931
C	4.81317	0.816249	0.812041
N	4.3325	1.06389	-0.430593
C	4.35989	-0.109302	-1.04825
N	4.83807	-1.09314	-0.250123
H	5.5497	-1.07331	1.81913
H	4.91641	1.60251	1.57754
H	4.04134	-0.30414	-2.08497
H	4.95701	-2.10376	-0.506532
