18
  This energy is -1.5088 and Call times are: 187002
C	-0.166657	1.08328	-0.291767
C	0.996835	0.649532	0.27261
C	0.826296	-0.751442	0.492401
C	-0.426354	-1.05013	0.0429317
O	-1.04706	0.0585285	-0.439361
H	-0.487571	2.08251	-0.62912
H	1.88598	1.25536	0.510302
H	1.55692	-1.44781	0.934387
H	-0.984557	-2.00022	0.0113956
C	4.22543	-0.287606	-0.986027
C	4.81649	-1.15328	-0.0902628
N	5.39089	-0.478457	0.935011
C	5.15706	0.800999	0.676283
N	4.45769	0.968222	-0.471111
H	3.67435	-0.470263	-1.92224
H	4.83877	-2.2527	-0.165399
H	5.47545	1.65636	1.29372
H	4.15085	1.88068	-0.88887
