18
  This energy is -1.3425 and Call times are: 143282
C	0.674948	-0.157419	0.897812
C	0.907135	-0.757717	-0.30473
C	-0.142617	-0.320634	-1.16908
C	-0.923623	0.508175	-0.418425
O	-0.439077	0.619318	0.846436
H	1.22094	-0.201507	1.85448
H	1.73462	-1.43988	-0.557732
H	-0.290866	-0.596534	-2.22548
H	-1.83826	1.07224	-0.664416
C	5.67013	-0.971314	-0.341459
C	6.09363	-0.0477765	0.590671
N	5.1869	0.948482	0.738345
C	4.20461	0.644153	-0.0989885
N	4.44877	-0.504442	-0.773309
H	6.13592	-1.89685	-0.715564
H	7.0372	-0.0824573	1.15929
H	3.2835	1.22772	-0.257828
H	3.82627	-0.953727	-1.48878
