18
  This energy is -1.0348 and Call times are: 124224
C	-0.785733	-0.130908	0.807396
C	0.420191	0.458215	1.05041
C	1.1226	0.438588	-0.19311
C	0.283907	-0.160796	-1.08625
O	-0.886057	-0.515051	-0.492366
H	-1.64637	-0.333473	1.46582
H	0.779097	0.86572	2.00917
H	2.1344	0.82785	-0.390195
H	0.400607	-0.39067	-2.15807
C	6.22261	-0.289692	-0.983764
C	6.0579	-0.846509	0.266823
N	6.8881	-0.271868	1.17075
C	7.56526	0.637981	0.483542
N	7.20033	0.666068	-0.820158
H	5.72969	-0.498959	-1.94646
H	5.35491	-1.65259	0.533077
H	8.3398	1.31071	0.88572
H	7.58829	1.29591	-1.5645
