18
  This energy is -1.3641 and Call times are: 148645
C	-0.0849947	-1.09955	0.264907
C	0.946038	-0.320616	0.701502
C	0.705005	0.982177	0.167882
C	-0.452041	0.884359	-0.547693
O	-0.948227	-0.379947	-0.499305
H	-0.315376	-2.1654	0.426538
H	1.7915	-0.632203	1.3357
H	1.32642	1.88153	0.306088
H	-1.0178	1.63121	-1.12854
C	4.12935	0.656001	-0.600706
C	4.70508	0.960623	0.614565
N	5.54788	-0.0217764	1.01592
C	5.4952	-0.932389	0.0533062
N	4.65381	-0.570107	-0.943898
H	3.40761	1.2066	-1.22478
H	4.52744	1.87166	1.20896
H	6.05229	-1.88278	0.028266
H	4.44146	-1.11871	-1.81292
