18
  This energy is -1.166 and Call times are: 34087
C	-0.582994	-0.617907	-0.751472
C	-0.104655	0.625763	-1.04276
C	0.563103	1.07419	0.137545
C	0.433874	0.0649622	1.04591
O	-0.263295	-0.976317	0.519885
H	-1.15809	-1.33974	-1.35437
H	-0.21134	1.17252	-1.99343
H	1.07709	2.03776	0.283967
H	0.787902	-0.0329265	2.0853
C	5.48302	-0.514286	-0.712378
C	4.37079	0.208183	-1.08939
N	3.69028	0.657824	-0.00715162
C	4.37772	0.215981	1.03727
N	5.46742	-0.496152	0.664435
H	6.25864	-1.02307	-1.30659
H	4.04717	0.413053	-2.1229
H	4.12761	0.385068	2.09703
H	6.1671	-0.948321	1.3026
