18
  This energy is -0.8553 and Call times are: 57911
C	0.817096	0.163959	-0.769333
C	0.795174	0.822951	0.424662
C	-0.369	0.355828	1.10775
C	-0.955718	-0.547381	0.270883
O	-0.244761	-0.676996	-0.880095
H	1.52426	0.204733	-1.61403
H	1.52554	1.56369	0.787937
H	-0.720727	0.662379	2.10595
H	-1.86839	-1.15656	0.376643
C	6.38013	0.344038	0.811251
C	6.54429	0.368716	-0.557539
N	5.44205	-0.101459	-1.19041
C	4.59731	-0.416623	-0.217936
N	5.11637	-0.166466	1.00746
H	7.05081	0.643637	1.6322
H	7.4383	0.717355	-1.0998
H	3.58579	-0.834115	-0.347357
H	4.64578	-0.330204	1.93103
