18
  This energy is -0.6427 and Call times are: 188526
C	0.407091	0.960204	0.445743
C	-0.635292	0.280267	1.00386
C	-0.852219	-0.857526	0.168109
C	0.076753	-0.772438	-0.826951
O	0.854307	0.331531	-0.673087
H	0.916646	1.89095	0.744615
H	-1.19527	0.55262	1.9129
H	-1.61383	-1.64274	0.300317
H	0.284477	-1.42482	-1.69095
C	5.70397	0.532818	0.778216
C	4.52928	1.0265	0.251411
N	3.97573	0.146458	-0.617857
C	4.80387	-0.889234	-0.630275
N	5.86139	-0.704653	0.195057
H	6.41531	0.960272	1.50266
H	4.07125	2.00191	0.482977
H	4.68372	-1.80872	-1.22554
H	6.65082	-1.37626	0.359411
