18
  This energy is -0.7609 and Call times are: 89103
C	0.104003	-0.112021	-1.12385
C	0.732202	-0.945247	-0.245512
C	0.361907	-0.491281	1.05714
C	-0.459885	0.579282	0.859848
O	-0.628369	0.825026	-0.466136
H	0.0978271	-0.0814982	-2.22579
H	1.39033	-1.79437	-0.490368
H	0.675848	-0.918446	2.0231
H	-0.981289	1.24145	1.57042
C	4.70855	-0.620758	-0.129511
C	4.83511	0.75194	-0.158233
N	6.12416	1.12773	0.0252408
C	6.79473	-0.00752033	0.167245
N	5.98578	-1.09006	0.0817299
H	3.8293	-1.27504	-0.240733
H	4.01941	1.47791	-0.308055
H	7.87941	-0.103419	0.336051
H	6.27621	-2.09534	0.161203
