18
  This energy is -0.8641 and Call times are: 5666
C	0.228544	0.0434803	1.11008
C	-0.763427	0.78523	0.538963
C	-0.742025	0.461767	-0.852091
C	0.261135	-0.449092	-1.00823
O	0.86461	-0.716175	0.179835
H	0.57662	-0.0321381	2.15333
H	-1.44213	1.48951	1.04635
H	-1.40084	0.86539	-1.63768
H	0.63899	-0.974777	-1.90049
C	6.15436	0.158831	0.165249
C	5.16107	0.256743	1.11652
N	3.94229	0.0108295	0.577446
C	4.17858	-0.238692	-0.703385
N	5.49719	-0.161734	-1.00161
H	7.24596	0.290205	0.233782
H	5.302	0.50042	2.18217
H	3.42254	-0.483276	-1.46681
H	5.93543	-0.316734	-1.94245
