18
  This energy is -0.6477 and Call times are: 139540
C	0.902423	-0.614775	0.306733
C	-0.365733	-0.93628	0.692465
C	-1.2136	0.0586126	0.116763
C	-0.388713	0.900255	-0.569951
O	0.907041	0.504061	-0.464756
H	1.87306	-1.09532	0.512145
H	-0.673272	-1.78854	1.3195
H	-2.30922	0.131102	0.208689
H	-0.597794	1.80401	-1.16557
C	5.85833	1.15181	0.00372652
C	5.00832	0.126796	0.361426
N	5.61624	-1.07799	0.237151
C	6.83874	-0.801432	-0.195999
N	7.03386	0.529369	-0.352474
H	5.71469	2.24372	-0.0217059
H	3.96728	0.234984	0.706948
H	7.63095	-1.53548	-0.414692
H	7.91311	0.997769	-0.682296
