18
  This energy is -1.3087 and Call times are: 13262
C	0.911887	-0.489123	-0.464351
C	0.867204	0.841967	-0.170111
C	-0.424909	1.07492	0.392292
C	-1.05575	-0.134383	0.392082
O	-0.254019	-1.1009	-0.127602
H	1.70417	-1.11335	-0.909183
H	1.66419	1.58524	-0.332789
H	-0.828934	2.03471	0.752364
H	-2.06131	-0.434482	0.729778
C	4.48903	-1.03381	-0.383982
C	5.0396	-0.769818	0.852276
N	5.40783	0.530271	0.955638
C	5.08693	1.07077	-0.212058
N	4.52978	0.16847	-1.0541
H	4.08461	-1.96121	-0.819763
H	5.17772	-1.49414	1.6715
H	5.23808	2.12268	-0.503354
H	4.19301	0.350144	-2.03126
