18
  This energy is -0.6118 and Call times are: 30657
C	0.254106	-1.07137	-0.272039
C	-0.910108	-0.475801	-0.6597
C	-0.864736	0.851123	-0.133078
C	0.323199	0.949285	0.529906
O	1.01933	-0.215555	0.455308
H	0.650456	-2.085	-0.447271
H	-1.71963	-0.925756	-1.25662
H	-1.63208	1.63453	-0.240504
H	0.782681	1.78194	1.08742
C	5.68044	-0.557989	-0.7815
C	4.6866	-1.11366	-0.00390425
N	4.10435	-0.179156	0.786149
C	4.73457	0.951961	0.499771
N	5.69369	0.775884	-0.439747
H	6.35664	-1.00253	-1.52894
H	4.37925	-2.17213	0.00121225
H	4.5336	1.93806	0.948606
H	6.32678	1.51471	-0.832928
