18
  This energy is -0.8939 and Call times are: 120349
C	0.649692	-0.664125	-0.650568
C	-0.615783	-1.01537	-0.282362
C	-1.10212	0.0607704	0.52108
C	-0.0909085	0.974627	0.57292
O	0.986626	0.548244	-0.137101
H	1.40223	-1.18264	-1.26708
H	-1.1529	-1.93956	-0.549713
H	-2.09128	0.136843	1.00052
H	-0.0150664	1.95345	1.07432
C	4.53389	0.672089	0.0054055
C	5.72928	0.946456	-0.624605
N	6.6279	-0.0474569	-0.421792
C	5.99241	-0.935045	0.331175
N	4.7267	-0.547076	0.615857
H	3.59111	1.23922	0.0606907
H	5.95944	1.84376	-1.22186
H	6.40699	-1.88614	0.702346
H	4.02577	-1.07451	1.19186
