18
  This energy is -0.8265 and Call times are: 192043
C	-0.171472	0.688462	-0.884883
C	-1.07048	0.57095	0.134115
C	-0.508091	-0.375087	1.04453
C	0.684933	-0.752171	0.501504
O	0.906602	-0.112487	-0.676918
H	-0.18213	1.2994	-1.80243
H	-2.03308	1.09762	0.234588
H	-0.947966	-0.727748	1.99123
H	1.45678	-1.45755	0.850708
C	6.43847	-0.239157	0.499469
C	5.88634	1.00756	0.294578
N	4.67606	0.912975	-0.30775
C	4.47813	-0.387477	-0.475888
N	5.5123	-1.12425	-0.00550874
H	7.39309	-0.548824	0.953736
H	6.33957	1.97361	0.570573
H	3.59341	-0.854564	-0.93776
H	5.59317	-2.1704	-0.0222918
