18
  This energy is -1.102 and Call times are: 135067
C	-0.0741702	-0.708772	-0.88235
C	-1.02236	0.236866	-0.623349
C	-0.582212	0.920522	0.55096
C	0.59609	0.332307	0.905897
O	0.921537	-0.66471	0.0415747
H	0.00648179	-1.46344	-1.68187
H	-1.93971	0.433281	-1.20126
H	-1.09045	1.75239	1.06456
H	1.28916	0.52888	1.74032
C	4.77967	0.555823	-0.998967
C	4.78638	-0.805417	-0.779595
N	4.40862	-1.09784	0.488591
C	4.16847	0.0775212	1.05382
N	4.37778	1.10566	0.197837
H	5.02429	1.15227	-1.89225
H	5.05703	-1.58178	-1.51366
H	3.83709	0.242562	2.09169
H	4.25692	2.12706	0.406171
