18
  This energy is -0.921 and Call times are: 27867
C	0.480603	-0.0760378	1.02452
C	1.1989	0.206145	-0.10011
C	0.256767	0.215868	-1.17361
C	-0.95409	-0.0612309	-0.610215
O	-0.836021	-0.24237	0.731522
H	0.785085	-0.18455	2.07845
H	2.28341	0.389095	-0.167025
H	0.465561	0.407855	-2.23834
H	-1.9605	-0.156214	-1.04995
C	6.08179	0.770062	-0.572065
C	5.67812	0.840796	0.744441
N	4.89726	-0.216767	1.07359
C	4.81682	-0.940832	-0.0345114
N	5.51413	-0.387806	-1.05506
H	6.71183	1.43941	-1.17916
H	5.93631	1.63597	1.46269
H	4.26065	-1.88459	-0.153736
H	5.60501	-0.768527	-2.02874
