18
  This energy is -0.654 and Call times are: 201519
C	-0.732481	-0.330198	0.800526
C	-0.875487	0.842253	0.11841
C	0.225388	0.903114	-0.789604
C	0.943939	-0.237518	-0.582206
O	0.373365	-1.0024	0.385479
H	-1.34162	-0.793349	1.59406
H	-1.67591	1.58931	0.242245
H	0.448224	1.70674	-1.50976
H	1.86656	-0.615987	-1.05209
C	4.75796	0.261023	0.112748
C	5.43356	-0.00806537	-1.0587
N	6.74173	-0.268821	-0.819483
C	6.87716	-0.161905	0.495375
N	5.7094	0.156069	1.10267
H	3.70266	0.511422	0.305569
H	5.00053	-0.0187328	-2.07222
H	7.80913	-0.306204	1.06533
H	5.55768	0.295991	2.13159
