18
  This energy is -2.082 and Call times are: 10486
C	-0.602714	0.902903	0.328485
C	-0.298937	0.664037	-0.979581
C	0.458552	-0.546836	-0.990247
C	0.550796	-0.941025	0.312242
O	-0.0916698	-0.0673116	1.13131
H	-1.16818	1.71705	0.810832
H	-0.580072	1.27885	-1.84967
H	0.881498	-1.05752	-1.87025
H	1.0393	-1.81169	0.779749
C	4.68022	-0.737556	0.909262
C	5.81258	-0.0333083	0.55862
N	5.59583	0.722198	-0.545346
C	4.33381	0.487538	-0.878309
N	3.73859	-0.385956	-0.0319586
H	4.48438	-1.44059	1.73444
H	6.78207	-0.0568026	1.08243
H	3.79551	0.928886	-1.73252
H	2.74844	-0.72984	-0.0830274
