18
  This energy is -0.8448 and Call times are: 191370
C	1.13168	0.0558942	0.0507834
C	0.472065	-1.08174	-0.311243
C	-0.918815	-0.761449	-0.25664
C	-0.986365	0.543643	0.133932
O	0.256577	1.05858	0.326146
H	2.20703	0.277459	0.149713
H	0.920014	-2.0494	-0.588887
H	-1.76368	-1.43139	-0.483531
H	-1.84629	1.21087	0.308836
C	4.86555	-0.71121	-0.582976
C	5.06333	0.635284	-0.804292
N	5.98354	1.14126	0.0522779
C	6.35522	0.112578	0.802135
N	5.70964	-1.02695	0.458182
H	4.20588	-1.44268	-1.07625
H	4.55854	1.25074	-1.56668
H	7.0964	0.138258	1.61713
H	5.82932	-1.97109	0.90038
