18
  This energy is -0.9814 and Call times are: 204197
C	1.02719	-0.473367	-0.0848632
C	0.77885	0.80853	-0.479124
C	-0.606944	1.0362	-0.218629
C	-1.08311	-0.126669	0.311822
O	-0.0987292	-1.05946	0.400734
H	1.94984	-1.07652	-0.0978614
H	1.49926	1.5222	-0.91015
H	-1.17462	1.96149	-0.407526
H	-2.08865	-0.413045	0.661277
C	4.78327	0.0819625	-0.73347
C	5.90596	0.882282	-0.719472
N	6.76252	0.50537	0.260706
C	6.17346	-0.524858	0.852533
N	4.9776	-0.81907	0.289546
H	3.8896	0.0895995	-1.37754
H	6.11326	1.72492	-1.39906
H	6.57381	-1.10034	1.70269
H	4.32315	-1.58721	0.577492
