18
  This energy is -1.1748 and Call times are: 27675
C	0.127132	0.831838	-0.76045
C	-0.884462	0.826899	0.154443
C	-0.710705	-0.364396	0.923039
C	0.39173	-0.982277	0.409976
O	0.916136	-0.265625	-0.618819
H	0.390845	1.54911	-1.55494
H	-1.67383	1.58601	0.275886
H	-1.33857	-0.712591	1.75889
H	0.897208	-1.92257	0.684907
C	4.29859	0.73149	0.193585
C	4.27069	-0.646295	0.239114
N	5.49034	-1.16907	-0.0359978
C	6.27189	-0.119594	-0.25138
N	5.60009	1.04926	-0.124713
H	3.51066	1.48325	0.359626
H	3.39238	-1.27251	0.465542
H	7.34373	-0.150262	-0.505256
H	5.99536	2.0138	-0.245887
