18
  This energy is -0.9912 and Call times are: 6785
C	0.679029	0.71188	0.5644
C	0.941368	0.310186	-0.71239
C	-0.124851	-0.569403	-1.07242
C	-0.944618	-0.627564	0.016146
O	-0.468942	0.148873	1.02505
H	1.22394	1.38631	1.24519
H	1.79961	0.60382	-1.33793
H	-0.257653	-1.09334	-2.0326
H	-1.88325	-1.177	0.195993
C	6.57342	0.0569875	0.0701494
C	5.73166	0.992936	-0.492504
N	4.43676	0.604334	-0.399083
C	4.47505	-0.568233	0.219175
N	5.74065	-0.941807	0.523004
H	7.66957	0.0318497	0.176784
H	6.03548	1.94165	-0.964188
H	3.60591	-1.19575	0.474202
H	6.03199	-1.82418	1.01064
