18
  This energy is -2.1116 and Call times are: 43497
C	0.151036	-1.05906	-0.376795
C	0.332376	-0.716195	0.930848
C	0.0519252	0.682035	1.01095
C	-0.276037	1.07017	-0.254815
O	-0.220712	0.019619	-1.11521
H	0.25349	-2.02358	-0.900691
H	0.633432	-1.38119	1.75622
H	0.0923046	1.31668	1.91078
H	-0.563802	2.05116	-0.667257
C	3.42683	-1.13932	0.111401
C	3.67285	-0.458254	-1.06195
N	3.95761	0.844444	-0.820289
C	3.88851	0.97105	0.497975
N	3.57159	-0.197092	1.1051
H	3.16763	-2.19269	0.303193
H	3.64998	-0.883495	-2.07856
H	4.06085	1.89657	1.07064
H	3.45782	-0.354941	2.13631
