18
  This energy is -0.6121 and Call times are: 59710
C	0.802658	0.204047	-0.774924
C	0.990956	-0.663226	0.260816
C	-0.226509	-0.650584	1.00763
C	-1.05131	0.223297	0.362335
O	-0.439037	0.754547	-0.728495
H	1.46534	0.512012	-1.60031
H	1.89636	-1.25273	0.477214
H	-0.452734	-1.22834	1.91819
H	-2.08261	0.548853	0.576071
C	7.17337	0.284051	0.390226
C	6.49832	0.85784	-0.666283
N	5.28217	0.285115	-0.837964
C	5.20306	-0.640459	0.108439
N	6.31846	-0.680386	0.87517
H	8.16844	0.48701	0.817059
H	6.867	1.67482	-1.30774
H	4.35113	-1.31676	0.284722
H	6.49783	-1.3235	1.6848
