18
  This energy is -1.7478 and Call times are: 185018
C	-0.546886	-0.872757	-0.474985
C	0.454437	-1.04611	0.434782
C	0.886314	0.266635	0.795765
C	0.110779	1.1263	0.0747237
O	-0.770019	0.447666	-0.706727
H	-1.1706	-1.5981	-1.02281
H	0.849321	-2.00246	0.813658
H	1.68262	0.530464	1.51017
H	0.0879805	2.2275	0.0291738
C	4.93958	0.699846	0.697315
C	4.62123	-0.623043	0.920387
N	3.8686	-1.12163	-0.0902935
C	3.72061	-0.111899	-0.937144
N	4.34787	1.00849	-0.507183
H	5.52577	1.41946	1.29068
H	4.92111	-1.22667	1.79249
H	3.16272	-0.13842	-1.88703
H	4.37777	1.93562	-0.997884
