18
  This energy is -0.7833 and Call times are: 12535
C	0.237394	-0.620052	-0.919555
C	-0.467935	-1.11914	0.135809
C	-0.560126	-0.0541708	1.08315
C	0.0970044	1.0017	0.523063
O	0.590436	0.673857	-0.700072
H	0.549398	-1.07807	-1.87251
H	-0.881782	-2.1353	0.237031
H	-1.05966	-0.0804469	2.06492
H	0.280734	2.02548	0.888236
C	4.95848	0.276453	1.13294
C	4.91265	-0.989572	0.588675
N	4.71513	-0.938627	-0.751065
C	4.63873	0.354088	-1.03685
N	4.77944	1.12777	0.0655131
H	5.10108	0.620364	2.16973
H	5.01855	-1.93885	1.13869
H	4.48069	0.789086	-2.03687
H	4.75651	2.17634	0.100419
