18
  This energy is -1.2693 and Call times are: 74518
C	0.225957	-1.10787	0.0892458
C	0.224931	-0.27339	1.16814
C	-0.0987784	1.02179	0.660361
C	-0.26699	0.864439	-0.684004
O	-0.0724519	-0.42982	-1.05014
H	0.420746	-2.18937	0.0016553
H	0.431414	-0.542861	2.2164
H	-0.19318	1.95618	1.23664
H	-0.52261	1.58506	-1.47812
C	5.4944	-0.192046	-0.740443
C	5.23709	-0.860931	0.43749
N	4.12195	-0.380034	1.03893
C	3.68912	0.583524	0.237158
N	4.48262	0.735641	-0.849487
H	6.29907	-0.306725	-1.48401
H	5.83609	-1.6819	0.864164
H	2.79638	1.20911	0.398056
H	4.35199	1.4283	-1.62693
