18
  This energy is -0.9778 and Call times are: 58679
C	0.450388	0.621304	-0.835184
C	1.19653	-0.22964	-0.0739118
C	0.28793	-0.821183	0.855946
C	-0.93324	-0.279502	0.580811
O	-0.852556	0.603508	-0.449138
H	0.724599	1.28619	-1.67064
H	2.27824	-0.421526	-0.158659
H	0.525099	-1.5629	1.6355
H	-1.92326	-0.437684	1.03916
C	5.87946	-1.02253	0.0612354
C	5.45649	-0.378274	-1.08208
N	4.81947	0.779878	-0.783075
C	4.84715	0.853825	0.540704
N	5.47537	-0.209267	1.09637
H	6.42134	-1.97056	0.206643
H	5.59955	-0.728368	-2.11737
H	4.42232	1.66469	1.15409
H	5.62593	-0.381225	2.12059
