18
  This energy is -0.4913 and Call times are: 93456
C	-1.09878	0.152775	-0.236107
C	-0.213774	-0.327041	-1.15639
C	1.05058	-0.377253	-0.493813
C	0.82659	0.0763115	0.772868
O	-0.480594	0.40449	0.947743
H	-2.18015	0.357513	-0.299197
H	-0.429647	-0.616571	-2.19738
H	2.00991	-0.713454	-0.918947
H	1.50445	0.211185	1.63169
C	6.05207	0.9274	0.474125
C	5.47461	-0.0928176	-0.25171
N	6.40287	-0.997875	-0.646304
C	7.55184	-0.540867	-0.167087
N	7.3931	0.617451	0.516061
H	5.61809	1.8222	0.947972
H	4.40481	-0.192064	-0.497743
H	8.53922	-1.01511	-0.287147
H	8.1478	1.17348	0.987791
