18
  This energy is -0.655 and Call times are: 174052
C	-1.12821	0.114514	-0.0207962
C	-0.405363	0.210994	1.13184
C	0.958282	0.012794	0.755924
C	0.94836	-0.187306	-0.593237
O	-0.317552	-0.128525	-1.08418
H	-2.21021	0.198446	-0.214414
H	-0.79349	0.402518	2.14513
H	1.83765	0.0200931	1.41981
H	1.76374	-0.379149	-1.3099
C	7.14921	-0.589167	-0.370098
C	7.13238	0.537642	0.424358
N	5.86347	0.953005	0.656393
C	5.09601	0.0871671	0.00834791
N	5.82402	-0.861881	-0.626398
H	7.98263	-1.19603	-0.758263
H	8.0131	1.05836	0.834284
H	3.99502	0.101626	-0.0344752
H	5.4502	-1.65444	-1.20377
