18
  This energy is -0.6288 and Call times are: 191050
C	-0.115195	-1.04188	0.433154
C	-1.17122	-0.337367	-0.0656974
C	-0.634274	0.908914	-0.511332
C	0.70247	0.85597	-0.245463
O	1.03693	-0.328251	0.331399
H	-0.0534435	-2.04672	0.882304
H	-2.22281	-0.662676	-0.114921
H	-1.18678	1.74202	-0.974769
H	1.51133	1.58521	-0.416369
C	6.43114	0.45457	-0.339428
C	5.17511	0.876469	-0.720906
N	4.20939	0.12543	-0.137949
C	4.86383	-0.75903	0.602365
N	6.20591	-0.601876	0.514611
H	7.4358	0.819192	-0.60636
H	4.9484	1.70933	-1.40633
H	4.40946	-1.54391	1.22825
H	6.93582	-1.17551	1.00393
