18
  This energy is -0.7247 and Call times are: 181843
C	-1.06462	-0.128273	-0.369504
C	0.0156048	-0.272897	-1.18961
C	1.16225	-0.0380166	-0.370977
C	0.681498	0.229405	0.877117
O	-0.676463	0.178564	0.896276
H	-2.14632	-0.216719	-0.562769
H	0.00593987	-0.520173	-2.26332
H	2.21838	-0.0669722	-0.683776
H	1.19524	0.467773	1.8229
C	5.17043	0.60616	-0.391875
C	5.266	-0.0851255	0.797299
N	6.48229	-0.668526	0.926958
C	7.13877	-0.340414	-0.177578
N	6.3906	0.42757	-1.00464
H	4.34792	1.19298	-0.830797
H	4.47914	-0.173379	1.56404
H	8.16958	-0.635726	-0.431424
H	6.6841	0.813443	-1.93535
