18
  This energy is -0.8056 and Call times are: 156875
C	0.329867	0.869694	-0.649015
C	-0.732774	0.955097	0.201794
C	-0.831814	-0.322294	0.833127
C	0.179048	-1.07553	0.312385
O	0.898574	-0.363431	-0.594375
H	0.775992	1.60581	-1.33775
H	-1.38178	1.82987	0.368123
H	-1.57287	-0.634848	1.58628
H	0.487369	-2.11678	0.502084
C	5.63717	0.703714	-0.434776
C	4.41283	1.08799	0.0696702
N	3.69699	0.0149662	0.48525
C	4.47429	-1.03101	0.239552
N	5.65502	-0.667984	-0.31513
H	6.46925	1.28975	-0.856369
H	4.03317	2.12027	0.141206
H	4.22798	-2.08498	0.446209
H	6.43539	-1.30926	-0.599807
