18
  This energy is -1.3442 and Call times are: 27900
C	-0.158214	0.748833	-0.83703
C	0.0244119	-0.582162	-1.07256
C	0.187039	-1.18763	0.21083
C	0.0894351	-0.173173	1.11732
O	-0.12144	1.01642	0.494907
H	-0.322334	1.59675	-1.52212
H	0.0427646	-1.08696	-2.05181
H	0.356552	-2.2552	0.424477
H	0.151594	-0.167696	2.21794
C	6.8876	0.290749	0.570272
C	5.61756	0.213322	1.10145
N	4.71498	-0.151255	0.15862
C	5.42238	-0.299438	-0.953242
N	6.73765	-0.0442586	-0.756934
H	7.85521	0.551828	1.02755
H	5.33633	0.41399	2.14811
H	5.02737	-0.593374	-1.93904
H	7.49828	-0.0924327	-1.47832
