18
  This energy is -0.5529 and Call times are: 133442
C	1.05746	-0.366454	-0.184085
C	0.730729	0.413994	0.885738
C	-0.670884	0.664843	0.773167
C	-1.07693	0.01554	-0.355508
O	-0.0343705	-0.619597	-0.952741
H	2.01814	-0.801078	-0.505732
H	1.40871	0.776662	1.67498
H	-1.29569	1.26067	1.45778
H	-2.06646	-0.070053	-0.833787
C	5.28621	-0.265348	0.27233
C	6.32066	-1.15251	0.0625425
N	7.47124	-0.500404	-0.233169
C	7.15179	0.78641	-0.206933
N	5.84566	0.980096	0.0932144
H	4.22689	-0.426771	0.527883
H	6.25742	-2.25143	0.119257
H	7.83567	1.62859	-0.399999
H	5.35301	1.90314	0.174075
