18
  This energy is -1.4795 and Call times are: 115277
C	-1.1011	-0.157918	0.221458
C	-0.485265	1.04579	0.400899
C	0.877167	0.848564	0.0201165
C	0.973625	-0.458261	-0.358402
O	-0.225077	-1.08797	-0.241798
H	-2.14343	-0.477436	0.384861
H	-0.944358	1.97898	0.764894
H	1.68445	1.59843	0.0301767
H	1.82698	-1.05221	-0.724819
C	5.37542	0.796527	-0.85739
C	6.52823	0.121406	-0.516227
N	6.31111	-0.722994	0.52125
C	5.02849	-0.572289	0.822564
N	4.42051	0.332997	0.0198097
H	5.17372	1.54892	-1.63634
H	7.51274	0.228464	-1.00009
H	4.48356	-1.10012	1.62174
H	3.41356	0.625965	0.0583055
