18
  This energy is -1.5464 and Call times are: 112554
C	0.24436	0.559024	-0.956128
C	0.448174	-0.782951	-0.822202
C	0.025965	-1.11232	0.501948
C	-0.398583	0.0574535	1.0603
O	-0.272307	1.08849	0.183928
H	0.423776	1.24512	-1.80013
H	0.85502	-1.47181	-1.57986
H	0.0403712	-2.10733	0.975076
H	-0.806629	0.285262	2.05872
C	4.66275	-1.08128	0.0424007
C	3.91268	-0.541735	-0.981047
N	3.54145	0.730213	-0.69672
C	4.05923	0.978807	0.498571
N	4.74453	-0.0822431	0.986556
H	5.12856	-2.0724	0.161681
H	3.63274	-1.04745	-1.91952
H	3.96701	1.92118	1.06218
H	5.24316	-0.134003	1.90848
