18
  This energy is -1.213 and Call times are: 9756
C	-0.00865687	1.13408	0.013366
C	1.14105	0.414035	-0.128349
C	0.748756	-0.95902	-0.0976335
C	-0.606041	-0.956816	0.0601397
O	-1.08535	0.312996	0.129786
H	-0.191372	2.22072	0.0464817
H	2.16287	0.810061	-0.243011
H	1.40594	-1.83924	-0.183745
H	-1.33459	-1.78066	0.135993
C	4.79483	0.629545	0.946381
C	4.46355	-0.682816	0.683501
N	4.98377	-1.09052	-0.49957
C	5.6353	-0.035107	-0.968849
N	5.5512	1.02723	-0.133408
H	4.5539	1.28669	1.79706
H	3.85849	-1.3428	1.32629
H	6.19101	0.0143526	-1.9191
H	5.98039	1.97353	-0.280246
