18
  This energy is -1.0157 and Call times are: 25684
C	0.230714	-1.05208	0.355393
C	-0.929205	-0.736758	-0.289229
C	-0.851795	0.661151	-0.572025
C	0.348594	1.07667	-0.0752521
O	1.02286	0.0434228	0.494635
H	0.60626	-2.00638	0.759783
H	-1.75635	-1.42002	-0.540391
H	-1.60699	1.27724	-1.08604
H	0.831848	2.06743	-0.0643446
C	5.2925	0.854144	-0.419496
C	4.55636	-0.0504372	-1.155
N	3.87198	-0.89569	-0.346489
C	4.18238	-0.51692	0.885912
N	5.03588	0.534293	0.895049
H	5.9586	1.67545	-0.728211
H	4.50678	-0.108333	-2.25457
H	3.81289	-0.974699	1.81765
H	5.42751	1.01423	1.74213
