18
  This energy is -1.0639 and Call times are: 167770
C	0.574027	0.0387758	0.97744
C	-0.788238	-0.0115644	0.931899
C	-1.13199	-0.0494566	-0.453929
C	0.050565	-0.0189273	-1.13291
O	1.10282	0.0350453	-0.274508
H	1.27614	0.0798497	1.82632
H	-1.4815	-0.0210604	1.78829
H	-2.14476	-0.094173	-0.88566
H	0.274387	-0.0305767	-2.21227
C	4.79752	-0.873698	-0.788503
C	5.57207	0.266596	-0.819341
N	5.31713	1.05951	0.249681
C	4.38796	0.413571	0.941082
N	4.04113	-0.757461	0.356289
H	4.7332	-1.73106	-1.47722
H	6.31028	0.531385	-1.59379
H	3.92676	0.753001	1.88252
H	3.33127	-1.44572	0.707955
