18
  This energy is -0.5865 and Call times are: 181107
C	-0.989437	0.532013	0.156135
C	0.210381	1.13936	0.384031
C	1.2071	0.16255	0.079879
C	0.528372	-0.955487	-0.307031
O	-0.814086	-0.747714	-0.266433
H	-2.02461	0.897691	0.255885
H	0.376842	2.17168	0.731467
H	2.3	0.286924	0.144608
H	0.880033	-1.94895	-0.630479
C	6.86778	-0.779945	-0.432778
C	5.70366	-1.05728	0.252101
N	5.06091	0.0824429	0.604834
C	5.82339	1.0631	0.140547
N	6.92463	0.594585	-0.492975
H	7.6342	-1.44138	-0.867095
H	5.31602	-2.05933	0.498038
H	5.62222	2.14222	0.23675
H	7.67819	1.16897	-0.944072
