18
  This energy is -0.8769 and Call times are: 43626
C	-0.663091	-0.865629	0.312086
C	0.462631	-1.04126	-0.437766
C	1.01738	0.262062	-0.62141
C	0.181686	1.11908	0.0324328
O	-0.849999	0.447509	0.608306
H	-1.40586	-1.58449	0.695215
H	0.862273	-1.99311	-0.822934
H	1.93266	0.521635	-1.17727
H	0.210794	2.21367	0.16004
C	5.76836	-0.943952	-0.702173
C	6.73625	-0.63907	0.231306
N	6.456	0.526733	0.862868
C	5.31857	0.943499	0.323245
N	4.8635	0.0911964	-0.625482
H	5.66298	-1.79587	-1.39258
H	7.63177	-1.2394	0.460412
H	4.77565	1.86574	0.585823
H	3.98815	0.198489	-1.19426
