18
  This energy is -0.5921 and Call times are: 113529
C	-0.70759	0.211488	0.860808
C	-1.15123	-0.0456545	-0.403091
C	0.0197739	-0.258457	-1.19277
C	1.07562	-0.11257	-0.341721
O	0.649815	0.174657	0.916533
H	-1.24946	0.432857	1.79495
H	-2.19807	-0.0818489	-0.745014
H	0.0613701	-0.49245	-2.26869
H	2.16308	-0.187295	-0.506337
C	6.53353	1.0372	-0.156997
C	5.28204	0.673834	-0.607426
N	4.98296	-0.597678	-0.246431
C	6.04486	-1.02151	0.425394
N	7.00721	-0.0723733	0.506824
H	7.10162	1.97556	-0.258481
H	4.58955	1.30635	-1.18642
H	6.17024	-2.01785	0.879058
H	7.93701	-0.164229	0.98461
