18
  This energy is -0.8731 and Call times are: 105845
C	-1.00519	-0.484289	0.20362
C	0.0238472	-1.15759	-0.386403
C	1.10327	-0.226007	-0.470744
C	0.638569	0.934332	0.0751845
O	-0.647327	0.794626	0.492276
H	-2.02789	-0.798806	0.468955
H	0.0228843	-2.20517	-0.727973
H	2.10563	-0.407688	-0.89071
H	1.11778	1.91602	0.223167
C	4.97871	-0.706534	0.192673
C	6.25447	-1.08899	-0.164117
N	7.06612	-0.0127843	-0.303855
C	6.2968	1.03334	-0.0347775
N	5.02931	0.667362	0.270373
H	4.06876	-1.29519	0.390194
H	6.60382	-2.12218	-0.323213
H	6.61077	2.08952	-0.0465199
H	4.23624	1.30812	0.518819
