18
  This energy is -0.833 and Call times are: 42595
C	-1.00504	0.280736	0.444382
C	-0.440472	-0.946579	0.632345
C	0.802241	-0.917188	-0.0711596
C	0.887371	0.325493	-0.626919
O	-0.207771	1.0704	-0.322299
H	-1.95682	0.709644	0.798509
H	-0.857312	-1.78817	1.20859
H	1.54049	-1.73146	-0.148818
H	1.6647	0.795296	-1.25165
C	5.67948	1.08613	0.446197
C	4.84253	0.666572	-0.566042
N	5.01488	-0.651902	-0.827638
C	5.95518	-1.04878	0.0190938
N	6.38825	-0.0374772	0.808594
H	5.8163	2.07189	0.918542
H	4.1174	1.29159	-1.11229
H	6.36364	-2.06873	0.103335
H	7.12381	-0.0978274	1.55464
