18
  This energy is -0.8208 and Call times are: 20790
C	0.406799	-0.925517	-0.514134
C	1.21866	0.0598713	-0.0342705
C	0.349439	1.04039	0.534191
C	-0.916856	0.567633	0.351524
O	-0.900589	-0.631904	-0.287114
H	0.633447	-1.87294	-1.03014
H	2.31922	0.0929442	-0.0763838
H	0.642063	1.98486	1.02046
H	-1.89964	0.984508	0.626472
C	6.26931	0.929106	0.271806
C	5.81211	0.576586	-0.980327
N	5.06586	-0.553399	-0.927774
C	5.06014	-0.90057	0.352095
N	5.77181	-0.0383212	1.11606
H	6.8927	1.77183	0.610528
H	6.00732	1.11735	-1.92071
H	4.55064	-1.77689	0.784209
H	5.91694	-0.0958042	2.15379
