18
  This energy is -1.5409 and Call times are: 124352
C	0.188826	0.730847	-0.846527
C	0.12426	-0.616915	-1.04588
C	-0.123829	-1.19068	0.238396
C	-0.188966	-0.142889	1.10918
O	-0.000247996	1.03814	0.463753
H	0.361318	1.56583	-1.54531
H	0.239751	-1.15324	-2.00145
H	-0.238935	-2.26032	0.476552
H	-0.361666	-0.106245	2.19733
C	4.39048	0.355976	1.11812
C	3.49735	0.814996	0.173254
N	3.67367	0.183964	-1.01301
C	4.67238	-0.663309	-0.804863
N	5.13882	-0.597528	0.464664
H	4.54145	0.631193	2.17405
H	2.7289	1.59019	0.326243
H	5.10163	-1.35503	-1.54749
H	5.92142	-1.1648	0.873317
