18
  This energy is -1.3053 and Call times are: 16771
C	0.824967	0.257529	-0.734512
C	-0.116147	1.16491	-0.345501
C	-0.968046	0.476154	0.571011
C	-0.472311	-0.791321	0.66116
O	0.622673	-0.942498	-0.129514
H	1.67903	0.341038	-1.4265
H	-0.201858	2.21402	-0.67127
H	-1.84559	0.885062	1.09713
H	-0.803578	-1.66616	1.24441
C	4.0268	0.374724	0.545494
C	4.2743	-0.89782	0.0758993
N	5.49851	-0.976652	-0.499965
C	6.00853	0.242352	-0.388046
N	5.15959	1.09353	0.235157
H	3.15385	0.805301	1.06134
H	3.59147	-1.76048	0.142291
H	6.99939	0.566228	-0.745182
H	5.33154	2.10779	0.442443
