18
  This energy is -0.7864 and Call times are: 34151
C	-0.107802	0.554869	0.983311
C	-1.0463	-0.328125	0.536179
C	-0.561325	-0.813104	-0.716704
C	0.630714	-0.183661	-0.924591
O	0.923288	0.65543	0.103679
H	-0.057598	1.16742	1.89847
H	-1.98583	-0.609697	1.03826
H	-1.05009	-1.54546	-1.37917
H	1.35571	-0.245909	-1.7527
C	6.42965	0.821354	0.148838
C	6.59509	-0.431536	-0.402559
N	5.42594	-1.11662	-0.418549
C	4.53856	-0.291873	0.120878
N	5.09464	0.889571	0.479425
H	7.14364	1.64186	0.323548
H	7.53711	-0.853435	-0.789138
H	3.46831	-0.502566	0.277052
H	4.60256	1.70263	0.924455
