18
  This energy is -1.4348 and Call times are: 121522
C	0.51666	-0.777933	-0.643648
C	-0.62081	-1.04932	0.058409
C	-0.961411	0.161934	0.734408
C	-0.00201004	1.06657	0.385768
O	0.9087	0.509643	-0.45533
H	1.13509	-1.40665	-1.30509
H	-1.16538	-2.00645	0.096432
H	-1.82257	0.330658	1.40077
H	0.142509	2.12319	0.664912
C	4.32942	-0.86789	0.784289
C	4.50909	0.481121	1.00572
N	4.27541	1.19664	-0.121198
C	3.95199	0.294945	-1.03824
N	3.97021	-0.964632	-0.54153
H	4.42846	-1.73691	1.45402
H	4.80316	0.950956	1.95841
H	3.69284	0.502514	-2.08895
H	3.75223	-1.84683	-1.06639
