18
  This energy is -1.0247 and Call times are: 132188
C	-0.210731	0.94123	0.596724
C	0.955033	0.755197	-0.0864746
C	0.846906	-0.529243	-0.701812
C	-0.375387	-1.01473	-0.340317
O	-1.03489	-0.12977	0.452728
H	-0.569956	1.78034	1.21487
H	1.80575	1.45251	-0.150676
H	1.59712	-1.02581	-1.33797
H	-0.88506	-1.96279	-0.578351
C	5.6147	-0.882194	-0.659432
C	5.55763	-0.834243	0.717371
N	5.01983	0.334308	1.14372
C	4.74432	1.00873	0.0356281
N	5.08452	0.317731	-1.07809
H	5.9828	-1.65936	-1.34795
H	5.89487	-1.62188	1.41073
H	4.2931	2.01263	-0.0174609
H	4.96683	0.635507	-2.07128
