18
  This energy is -0.8276 and Call times are: 186810
C	0.484959	-0.551772	0.864154
C	1.17517	0.32118	0.0755248
C	0.236675	0.805252	-0.886253
C	-0.944191	0.185377	-0.600448
O	-0.810851	-0.646931	0.465617
H	0.797476	-1.16012	1.72873
H	2.23851	0.596599	0.16236
H	0.427692	1.53061	-1.69338
H	-1.9375	0.250563	-1.07409
C	5.81176	-0.896967	-0.641089
C	5.29678	0.291054	-1.11495
N	4.91561	1.09929	-0.0961426
C	5.19308	0.415286	1.00557
N	5.73498	-0.794663	0.729979
H	6.21403	-1.77855	-1.16504
H	5.19343	0.579491	-2.17371
H	5.01967	0.753355	2.03992
H	6.03877	-1.51718	1.4278
