18
  This energy is -1.0157 and Call times are: 96357
C	0.541374	-0.913058	0.399549
C	1.16969	0.281914	0.205539
C	0.172068	1.17079	-0.299207
C	-0.977807	0.440535	-0.369082
O	-0.770596	-0.834318	0.0537951
H	0.91192	-1.8817	0.773285
H	2.22937	0.514141	0.398508
H	0.304473	2.22923	-0.575396
H	-1.99535	0.70868	-0.697651
C	5.90988	0.839993	-0.554568
C	5.73636	0.705269	0.806639
N	4.97532	-0.377684	1.09739
C	4.67784	-0.912761	-0.0789753
N	5.21806	-0.21515	-1.10615
H	6.45842	1.58713	-1.14991
H	6.14666	1.37008	1.58416
H	4.06793	-1.81527	-0.245465
H	5.12721	-0.435981	-2.12803
