18
  This energy is -0.5158 and Call times are: 75637
C	-0.921419	-0.609994	0.255528
C	-0.791339	0.700446	0.610775
C	0.484384	1.11402	0.119243
C	1.02126	0.019801	-0.492982
O	0.17629	-1.04208	-0.419264
H	-1.73493	-1.33519	0.42148
H	-1.52058	1.31427	1.16351
H	0.940915	2.11226	0.2151
H	1.98279	-0.129944	-1.01095
C	5.2357	0.0819705	0.150926
C	6.1487	-0.455499	1.03337
N	7.4076	-0.386348	0.536475
C	7.27608	0.191822	-0.649716
N	5.98569	0.493408	-0.928155
H	4.14184	0.196946	0.212426
H	5.92161	-0.891935	2.01968
H	8.09187	0.417921	-1.35513
H	5.62523	0.953078	-1.79995
