18
  This energy is -0.5425 and Call times are: 90112
C	0.719965	0.497505	-0.721485
C	1.14499	-0.184643	0.380514
C	-0.0372064	-0.658049	1.02736
C	-1.08029	-0.223402	0.263543
O	-0.636223	0.483974	-0.808572
H	1.27533	1.03003	-1.51094
H	2.18652	-0.338975	0.70531
H	-0.0945203	-1.25241	1.9534
H	-2.16984	-0.349576	0.374117
C	5.71096	1.00057	-0.192325
C	5.38889	0.011639	0.712901
N	6.2872	-1.0021	0.6693
C	7.16322	-0.643423	-0.259443
N	6.85954	0.556501	-0.808578
H	5.22046	1.957	-0.433543
H	4.52444	0.011437	1.39669
H	8.04569	-1.22205	-0.576726
H	7.39669	1.0538	-1.56052
