18
  This energy is -1.1047 and Call times are: 163676
C	0.82471	-0.614325	-0.478392
C	0.766288	-0.391045	0.865895
C	-0.395958	0.411432	1.07881
C	-0.945168	0.607693	-0.154164
O	-0.212688	-0.0117087	-1.11688
H	1.544	-1.17752	-1.09539
H	1.47095	-0.754936	1.63083
H	-0.771596	0.793437	2.04165
H	-1.84303	1.16106	-0.474909
C	5.71845	0.762051	-0.793264
C	4.4496	0.22406	-0.751731
N	4.31082	-0.619773	0.299552
C	5.4891	-0.605328	0.907893
N	6.37182	0.212716	0.287257
H	6.18707	1.47322	-1.49196
H	3.63179	0.429658	-1.46149
H	5.75958	-1.17497	1.81154
H	7.36476	0.393965	0.574454
