18
  This energy is -0.6804 and Call times are: 47983
C	-0.118006	-0.630946	0.935084
C	-1.02397	-0.659013	-0.0841405
C	-0.535815	0.255779	-1.06647
C	0.625357	0.762106	-0.560823
O	0.895814	0.231586	0.660821
H	-0.0815495	-1.17015	1.89591
H	-1.94373	-1.26329	-0.138738
H	-1.00185	0.501797	-2.03414
H	1.34103	1.49575	-0.966819
C	5.77472	-0.728078	-0.632253
C	4.47841	-0.349833	-0.910889
N	4.00469	0.50165	0.0309594
C	5.00332	0.651074	0.890622
N	6.09281	-0.0700397	0.534792
H	6.47018	-1.39665	-1.16412
H	3.87645	-0.676069	-1.77464
H	4.99029	1.27667	1.79765
H	7.00586	-0.118607	1.04981
