18
  This energy is -1.159 and Call times are: 184826
C	0.230325	-0.375567	1.04513
C	-1.03075	-0.0346747	0.652875
C	-0.917172	0.383971	-0.70799
C	0.403277	0.261951	-1.0272
O	1.11873	-0.200608	0.031653
H	0.620955	-0.751035	2.00518
H	-1.94885	-0.0740713	1.26085
H	-1.72971	0.733703	-1.36493
H	0.951936	0.468987	-1.96067
C	4.65919	1.05353	-0.499823
C	4.9796	0.693623	0.792055
N	4.65901	-0.600966	1.03241
C	4.14169	-1.04251	-0.106025
N	4.11983	-0.082521	-1.06077
H	4.77303	2.00592	-1.04161
H	5.43635	1.34488	1.55501
H	3.76336	-2.06004	-0.295053
H	3.76048	-0.18425	-2.04147
