18
  This energy is -1.0445 and Call times are: 106326
C	-0.465401	0.394046	-0.956311
C	-0.4162	-0.936958	-0.662401
C	0.233966	-1.03358	0.605694
C	0.524676	0.246912	0.974756
O	0.10466	1.13172	0.0325683
H	-0.873785	0.936361	-1.82485
H	-0.799315	-1.76742	-1.27694
H	0.455176	-1.95385	1.16985
H	1.02093	0.654791	1.87064
C	5.87607	-0.0908297	0.651258
C	5.5971	0.876218	-0.291155
N	4.37954	0.675723	-0.851374
C	3.90496	-0.411571	-0.258759
N	4.7701	-0.911197	0.655299
H	6.75406	-0.248038	1.29775
H	6.25256	1.71501	-0.576906
H	2.9296	-0.8847	-0.456386
H	4.62585	-1.7615	1.25316
