18
  This energy is -1.1882 and Call times are: 42926
C	0.731401	-0.161365	-0.851713
C	0.965563	0.730865	0.15301
C	-0.16585	0.648224	1.02088
C	-0.991524	-0.287212	0.469882
O	-0.459291	-0.792038	-0.674185
H	1.32571	-0.436371	-1.73851
H	1.84664	1.3819	0.271143
H	-0.336416	1.22245	1.94568
H	-1.97146	-0.677205	0.790632
C	5.23096	-0.56411	1.02456
C	5.79677	-0.904689	-0.185815
N	5.43227	-0.0336835	-1.15792
C	4.64332	0.843906	-0.55292
N	4.49074	0.567388	0.763836
H	5.30036	-1.03128	2.01979
H	6.46148	-1.76329	-0.375076
H	4.151	1.70828	-1.02695
H	3.91773	1.11131	1.45454
