18
  This energy is -1.3544 and Call times are: 92311
C	0.93634	0.479194	0.424312
C	0.641967	0.504632	-0.907256
C	-0.597323	-0.19159	-1.04708
C	-0.950862	-0.581018	0.211378
O	-0.0256403	-0.179786	1.12242
H	1.78775	0.888082	0.992784
H	1.23776	0.967259	-1.71044
H	-1.15345	-0.376095	-1.98024
H	-1.8238	-1.14085	0.585292
C	4.79883	0.244366	1.13354
C	5.52967	-0.811678	0.631752
N	5.55609	-0.787665	-0.722957
C	4.84435	0.279219	-1.06031
N	4.36617	0.935025	0.0235914
H	4.56385	0.543302	2.16744
H	6.03837	-1.5905	1.22294
H	4.64191	0.625957	-2.08648
H	3.77791	1.80404	0.0192665
