18
  This energy is -1.0881 and Call times are: 113625
C	0.586404	0.828754	-0.505666
C	0.0657856	-0.224871	-1.19791
C	-0.59198	-1.0426	-0.229002
C	-0.415248	-0.416484	0.969799
O	0.302203	0.727931	0.819505
H	1.17088	1.70323	-0.835708
H	0.137731	-0.407879	-2.28208
H	-1.13142	-1.98567	-0.412577
H	-0.74599	-0.679789	1.9879
C	4.53544	0.302016	-1.1294
C	4.00782	1.08158	-0.121903
N	4.00189	0.416118	1.05862
C	4.52385	-0.771762	0.784535
N	4.86164	-0.889695	-0.521445
H	4.69649	0.504214	-2.20024
H	3.63131	2.11227	-0.225667
H	4.68147	-1.59239	1.50284
H	5.29034	-1.72903	-0.982954
