18
  This energy is -0.6572 and Call times are: 185338
C	0.363732	0.462923	-0.969434
C	-0.597598	-0.504129	-0.937346
C	-0.78087	-0.827648	0.441735
C	0.0846437	-0.0297344	1.13064
O	0.791681	0.764866	0.28464
H	0.823583	1.00909	-1.80937
H	-1.12478	-0.945387	-1.79843
H	-1.4784	-1.56961	0.862493
H	0.289491	0.066286	2.20956
C	5.3743	-0.733006	-0.90411
C	4.55143	0.373136	-0.882384
N	4.59177	0.988525	0.324339
C	5.43646	0.266898	1.04848
N	5.93524	-0.782129	0.352522
H	5.59311	-1.4643	-1.69839
H	3.92934	0.738197	-1.71581
H	5.7255	0.462108	2.09374
H	6.61899	-1.49674	0.703355
