18
  This energy is -0.7675 and Call times are: 120958
C	0.706536	-0.88722	0.00698516
C	-0.552286	-0.960022	-0.513055
C	-1.12249	0.338068	-0.340014
C	-0.16178	1.08952	0.270494
O	0.961858	0.357201	0.489934
H	1.50702	-1.64035	0.0922757
H	-1.03127	-1.83959	-0.972432
H	-2.13148	0.665061	-0.638549
H	-0.154682	2.14256	0.596554
C	5.02149	-0.209966	-0.938421
C	4.71889	-0.481926	0.379005
N	5.73083	-0.109318	1.19976
C	6.6577	0.391892	0.394567
N	6.27743	0.353633	-0.904481
H	4.451	-0.3722	-1.86673
H	3.78851	-0.940324	0.752004
H	7.63323	0.800619	0.70362
H	6.83342	0.689343	-1.72876
