18
  This energy is -1.2386 and Call times are: 126181
C	0.320055	0.638576	0.881015
C	-0.80134	-0.1373	0.910435
C	-0.865625	-0.780038	-0.363485
C	0.22216	-0.340192	-1.05892
O	0.957371	0.526845	-0.314124
H	0.766685	1.3069	1.63541
H	-1.51197	-0.246095	1.74545
H	-1.63601	-1.48625	-0.712565
H	0.579343	-0.566174	-2.07706
C	5.22748	0.901864	-0.206168
C	5.02249	-0.19713	-1.01322
N	4.11404	-1.04163	-0.467291
C	3.75681	-0.468722	0.674104
N	4.40031	0.705296	0.877035
H	5.88163	1.7806	-0.322142
H	5.51382	-0.395821	-1.97964
H	3.0281	-0.865867	1.39901
H	4.2901	1.34409	1.70229
