18
  This energy is -0.9587 and Call times are: 115149
C	-1.03628	-0.366267	0.279968
C	-0.0346514	-1.21716	-0.0848591
C	1.09901	-0.392334	-0.357971
C	0.690071	0.889789	-0.135928
O	-0.611281	0.924366	0.254326
H	-2.08158	-0.552051	0.576739
H	-0.0887003	-2.31548	-0.154649
H	2.09869	-0.72398	-0.681616
H	1.22214	1.85167	-0.219166
C	5.6676	1.16318	-0.0632881
C	6.22223	0.295923	0.853986
N	5.81225	-0.976727	0.633107
C	5.00635	-0.899279	-0.4172
N	4.88656	0.369894	-0.873753
H	5.77002	2.2524	-0.192359
H	6.91087	0.565688	1.67121
H	4.47783	-1.74116	-0.892744
H	4.30879	0.688842	-1.68967
