18
  This energy is -0.817 and Call times are: 76118
C	0.581126	-0.968842	-0.100189
C	0.762607	-0.113122	0.94632
C	-0.134735	0.975184	0.721631
C	-0.785354	0.688439	-0.442347
O	-0.360599	-0.495099	-0.957937
H	1.05403	-1.93382	-0.346016
H	1.45856	-0.235957	1.79169
H	-0.272854	1.86392	1.35816
H	-1.56102	1.23773	-1.00081
C	4.52229	-0.447184	-0.153846
C	5.40437	-0.745074	0.863178
N	6.55731	-0.0453023	0.730633
C	6.39111	0.683934	-0.364454
N	5.18022	0.47716	-0.934172
H	3.50682	-0.81528	-0.370304
H	5.22954	-1.45239	1.69022
H	7.12406	1.38587	-0.793767
H	4.81262	0.933951	-1.8045
