18
  This energy is -0.6535 and Call times are: 119995
C	-0.837065	-0.377269	0.665877
C	-1.0366	-0.0482252	-0.642668
C	0.234168	0.377033	-1.13706
C	1.09807	0.270317	-0.0869841
O	0.460853	-0.188841	1.02213
H	-1.52767	-0.752397	1.43892
H	-1.98365	-0.0997965	-1.2035
H	0.46829	0.720736	-2.15742
H	2.17561	0.486894	-0.00183776
C	7.13964	0.0776168	-0.283359
C	6.13885	-0.505634	-1.03128
N	4.94234	-0.415372	-0.40142
C	5.19986	0.221453	0.732934
N	6.51063	0.540124	0.850937
H	8.21893	0.192449	-0.471742
H	6.2587	-0.989956	-2.01409
H	4.46555	0.480081	1.51276
H	6.96179	1.0436	1.65358
