18
  This energy is -0.9266 and Call times are: 148227
C	-0.970955	-0.126912	0.572312
C	-0.825677	0.792194	-0.42494
C	0.515741	0.650679	-0.894716
C	1.07177	-0.342412	-0.143066
O	0.178002	-0.828671	0.757904
H	-1.82945	-0.376338	1.21731
H	-1.58678	1.49893	-0.79284
H	1.00148	1.22587	-1.69927
H	2.07972	-0.788742	-0.151719
C	5.99977	1.07098	-0.445187
C	6.92287	0.236065	0.148068
N	6.34684	-0.923565	0.548014
C	5.07123	-0.808493	0.204182
N	4.81176	0.376284	-0.397953
H	6.10082	2.07677	-0.88303
H	7.99419	0.449643	0.294678
H	4.28429	-1.56183	0.369811
H	3.88262	0.703357	-0.759869
