18
  This energy is -0.9655 and Call times are: 160283
C	0.794669	0.130763	0.798626
C	-0.447137	-0.359799	1.07727
C	-1.14974	-0.374658	-0.166219
C	-0.275253	0.108135	-1.09496
O	0.917115	0.421813	-0.523232
H	1.66847	0.318179	1.44407
H	-0.829981	-0.679158	2.05988
H	-2.18564	-0.707829	-0.339411
H	-0.379044	0.274875	-2.17971
C	4.57566	0.709285	0.701575
C	5.66291	1.05787	-0.0714192
N	6.13869	-0.0107318	-0.755691
C	5.3496	-1.01842	-0.40852
N	4.39147	-0.635274	0.46828
H	3.94114	1.30307	1.37859
H	6.11257	2.06129	-0.147649
H	5.42894	-2.05753	-0.766559
H	3.64964	-1.24608	0.890016
