18
  This energy is -0.5332 and Call times are: 171749
C	0.479784	0.152918	1.01628
C	1.21364	-0.0657089	-0.112449
C	0.267204	-0.208068	-1.17269
C	-0.961459	-0.0638666	-0.598262
O	-0.850479	0.157235	0.73808
H	0.781188	0.317965	2.06374
H	2.31133	-0.121168	-0.190599
H	0.485182	-0.395848	-2.23632
H	-1.97693	-0.0968978	-1.02602
C	5.91079	0.468528	-1.00702
C	5.31463	0.559713	0.232908
N	6.03601	-0.0997933	1.17161
C	7.07575	-0.598224	0.516521
N	7.04582	-0.283191	-0.800084
H	5.61744	0.871917	-1.98924
H	4.37691	1.08956	0.466998
H	7.88855	-1.20129	0.952308
H	7.75258	-0.559022	-1.52511
