18
  This energy is -0.8324 and Call times are: 38222
C	0.761118	0.471035	0.696582
C	1.06975	0.100226	-0.579199
C	-0.130496	-0.444811	-1.12916
C	-1.06663	-0.358951	-0.140903
O	-0.539434	0.197902	0.981144
H	1.36968	0.933297	1.49108
H	2.04481	0.200455	-1.08251
H	-0.271063	-0.85119	-2.14365
H	-2.1281	-0.655054	-0.111624
C	6.75267	-0.458448	-0.258477
C	5.53684	-1.10799	-0.29021
N	4.52881	-0.275837	0.0674338
C	5.11704	0.88553	0.320078
N	6.45756	0.826815	0.138009
H	7.77297	-0.808205	-0.482509
H	5.36892	-2.16216	-0.564757
H	4.61339	1.81136	0.641646
H	7.14175	1.61097	0.273134
