18
  This energy is -0.9045 and Call times are: 27482
C	-0.799373	-0.56946	0.568435
C	-0.203926	-1.06924	-0.552296
C	0.732943	-0.0765839	-0.973046
C	0.627299	0.942163	-0.0722865
O	-0.303825	0.658069	0.876034
H	-1.5787	-0.983793	1.22891
H	-0.40433	-2.03958	-1.03435
H	1.40335	-0.124256	-1.84619
H	1.15153	1.90901	0.00275842
C	5.76778	1.13503	0.158444
C	4.52042	0.55675	0.262555
N	4.57679	-0.774451	0.0150937
C	5.85426	-1.02108	-0.241559
N	6.61304	0.0980187	-0.167656
H	6.10259	2.17637	0.288982
H	3.5808	1.07621	0.511793
H	6.28822	-2.00316	-0.489404
H	7.64804	0.163285	-0.328185
