18
  This energy is -1.4392 and Call times are: 80252
C	-0.0114846	-1.12192	0.166015
C	0.926462	-0.508095	-0.611061
C	0.612767	0.884908	-0.575624
C	-0.489181	0.999355	0.219979
O	-0.884009	-0.216411	0.681537
H	-0.164356	-2.18188	0.427472
H	1.75602	-0.988098	-1.15469
H	1.15074	1.69969	-1.08631
H	-1.07853	1.87762	0.530744
C	4.68248	-1.17643	0.0281808
C	3.95461	-0.318671	0.825419
N	4.22083	0.974936	0.521748
C	5.11049	0.919902	-0.460145
N	5.42135	-0.355097	-0.79381
H	4.72552	-2.2765	-0.0110794
H	3.24212	-0.610034	1.61429
H	5.56713	1.78298	-0.970832
H	6.09657	-0.659893	-1.53707
