18
  This energy is -1.5553 and Call times are: 118333
C	-0.661048	0.910527	-0.14268
C	-0.636685	0.200846	1.02185
C	0.302823	-0.85523	0.816559
C	0.769643	-0.697675	-0.455301
O	0.191744	0.375826	-1.05584
H	-1.23417	1.80301	-0.443099
H	-1.22163	0.400959	1.93393
H	0.591145	-1.63673	1.53782
H	1.50375	-1.27461	-1.04137
C	5.40857	-1.06106	-0.0245973
C	6.0391	0.161258	-0.12214
N	5.14599	1.17839	-0.0565879
C	3.96588	0.589318	0.0810978
N	4.07111	-0.760461	0.105868
H	5.80379	-2.08924	-0.0383334
H	7.12246	0.327454	-0.238641
H	2.99277	1.09891	0.168337
H	3.28384	-1.44716	0.20548
