18
  This energy is -1.1231 and Call times are: 47791
C	1.00686	-0.516851	0.0741456
C	0.696423	0.587181	0.812466
C	-0.638353	0.939826	0.446229
C	-1.02575	0.0201602	-0.483562
O	-0.033351	-0.87699	-0.722893
H	1.92147	-1.13035	0.0254647
H	1.34255	1.10163	1.54182
H	-1.23289	1.78205	0.835168
H	-1.96835	-0.102667	-1.04183
C	4.64571	-0.969543	-0.565293
C	4.94527	0.253276	-1.12754
N	5.3211	1.14736	-0.181031
C	5.25494	0.481743	0.964044
N	4.8526	-0.798795	0.785348
H	4.31111	-1.91754	-1.01571
H	4.89696	0.506416	-2.19919
H	5.49015	0.883913	1.96263
H	4.72295	-1.52348	1.5332
