18
  This energy is -0.8228 and Call times are: 157131
C	0.274394	0.408198	1.022
C	0.785457	-0.761493	0.541363
C	0.212018	-0.935194	-0.755215
C	-0.598843	0.143685	-0.95244
O	-0.572869	0.974441	0.122819
H	0.432845	0.938114	1.97559
H	1.49507	-1.43448	1.04894
H	0.388618	-1.76963	-1.45279
H	-1.23828	0.431914	-1.80291
C	4.5379	-0.800436	0.0343277
C	4.69879	0.203002	-0.897537
N	5.8027	0.943177	-0.632908
C	6.32467	0.400985	0.458974
N	5.59862	-0.653487	0.900043
H	3.76928	-1.5826	0.139184
H	4.03811	0.406158	-1.75607
H	7.23737	0.736663	0.977159
H	5.80451	-1.24618	1.74122
