18
  This energy is -0.8982 and Call times are: 160859
C	-0.347397	1.07038	0.141402
C	-0.070985	0.548547	-1.08809
C	0.329957	-0.802921	-0.8581
C	0.263161	-0.987644	0.491637
O	-0.148733	0.146091	1.11774
H	-0.68877	2.07193	0.450624
H	-0.142278	1.06364	-2.05953
H	0.631336	-1.54401	-1.61576
H	0.479658	-1.86653	1.12087
C	5.15696	0.49182	-1.06769
C	4.05853	-0.110396	-0.49156
N	4.34831	-0.569969	0.749944
C	5.62167	-0.254061	0.943274
N	6.1541	0.387463	-0.123756
H	5.29502	0.971259	-2.04984
H	3.06212	-0.221515	-0.949457
H	6.21317	-0.468906	1.84782
H	7.13888	0.738478	-0.214667
