18
  This energy is -0.6857 and Call times are: 176231
C	1.10315	-0.0873047	-0.248654
C	0.166692	-0.926581	-0.776884
C	-1.08582	-0.505934	-0.234318
C	-0.804188	0.55326	0.577569
O	0.527875	0.822722	0.580753
H	2.19613	-0.0345688	-0.382316
H	0.340492	-1.75844	-1.47824
H	-2.07623	-0.946803	-0.431366
H	-1.45396	1.19128	1.19883
C	6.4792	0.373111	1.0498
C	5.18214	0.395707	0.582611
N	5.10547	-0.112812	-0.6712
C	6.35023	-0.449598	-0.980661
N	7.21573	-0.176445	0.0242752
H	6.91567	0.698364	2.00753
H	4.30027	0.769823	1.12777
H	6.68356	-0.899874	-1.92954
H	8.25065	-0.350195	0.0225399
