18
  This energy is -0.7124 and Call times are: 31279
C	-0.500076	-1.01674	-0.0505633
C	0.618806	-0.789363	0.695611
C	0.942165	0.588825	0.505469
C	-0.00766191	1.08197	-0.340113
O	-0.896496	0.115173	-0.689803
H	-1.10139	-1.9272	-0.207862
H	1.16195	-1.51896	1.31753
H	1.78587	1.14025	0.950652
H	-0.159052	2.08913	-0.761976
C	5.95326	-0.806854	-0.0776195
C	4.61748	-0.984355	-0.369734
N	3.91719	0.158211	-0.16811
C	4.81512	1.04117	0.247507
N	6.0577	0.507766	0.318683
H	6.80839	-1.49989	-0.122223
H	4.14648	-1.91637	-0.722363
H	4.61674	2.09197	0.513395
H	6.93375	1.00156	0.618616
