18
  This energy is -1.4246 and Call times are: 88591
C	0.040664	-0.64371	0.932944
C	-1.00859	0.184626	0.662223
C	-0.697566	0.816262	-0.580522
C	0.5143	0.318151	-0.959519
O	0.979881	-0.57483	-0.0469225
H	0.235638	-1.32446	1.77782
H	-1.91107	0.335697	1.27608
H	-1.31094	1.55443	-1.12179
H	1.14204	0.516265	-1.84379
C	4.2201	-0.12454	0.95253
C	5.53413	-0.519435	0.816425
N	6.0089	-0.220539	-0.417174
C	4.99326	0.357585	-1.04398
N	3.89196	0.438921	-0.260328
H	3.51867	-0.202027	1.79843
H	6.14812	-1.01466	1.58623
H	5.00175	0.739981	-2.07738
H	2.96477	0.852428	-0.526041
