18
  This energy is -1.1256 and Call times are: 122407
C	0.909093	0.620647	0.273401
C	-0.351694	1.1407	0.254972
C	-1.21172	0.0674934	-0.130657
C	-0.40056	-1.01364	-0.313838
O	0.897898	-0.693887	-0.0713967
H	1.88435	1.07598	0.511711
H	-0.64651	2.17617	0.489416
H	-2.30592	0.105437	-0.254653
H	-0.62194	-2.05156	-0.612093
C	5.21204	1.12429	0.329411
C	5.9747	0.0573603	0.755043
N	5.56995	-1.09649	0.170813
C	4.56005	-0.746706	-0.614274
N	4.30544	0.581868	-0.553787
H	5.24907	2.19543	0.584021
H	6.80975	0.0994721	1.47322
H	3.97192	-1.42342	-1.25489
H	3.55953	1.10002	-1.07952
