18
  This energy is -1.2221 and Call times are: 30881
C	-0.221428	1.11232	0.0108178
C	-1.20535	0.170906	0.0883334
C	-0.541427	-1.09301	0.0455318
C	0.789605	-0.812385	-0.0543604
O	1.00321	0.529582	-0.0768812
H	-0.262173	2.21395	0.0083199
H	-2.28988	0.348684	0.167691
H	-1.00884	-2.09003	0.0851055
H	1.67265	-1.46937	-0.116413
C	5.1179	-0.385735	0.983909
C	4.96622	-1.07943	-0.198009
N	4.32139	-0.330186	-1.12502
C	4.07399	0.823923	-0.520499
N	4.53467	0.840064	0.752727
H	5.58406	-0.668211	1.94122
H	5.3105	-2.10711	-0.398469
H	3.55866	1.69109	-0.963993
H	4.4615	1.63492	1.43398
