18
  This energy is -1.5292 and Call times are: 65057
C	0.363614	0.943589	-0.51364
C	0.877498	0.514459	0.674698
C	0.175105	-0.687791	0.993061
C	-0.705995	-0.887209	-0.0288336
O	-0.60453	0.0995476	-0.957827
H	0.598487	1.82179	-1.13722
H	1.67153	0.996203	1.2676
H	0.316264	-1.32353	1.88188
H	-1.44843	-1.68182	-0.209446
C	5.39973	-1.03764	0.555334
C	6.50175	-0.285386	0.207784
N	6.13466	0.857042	-0.421987
C	4.80994	0.813684	-0.464966
N	4.31893	-0.308974	0.111353
H	5.31107	-2.00758	1.07002
H	7.55516	-0.546498	0.40016
H	4.14993	1.57752	-0.906749
H	3.30761	-0.573854	0.202592
