18
  This energy is -1.1092 and Call times are: 72540
C	0.0358137	-1.12458	-0.142985
C	0.872587	-0.276782	-0.807385
C	0.52667	1.03767	-0.368439
C	-0.490951	0.877082	0.525446
O	-0.803621	-0.436993	0.675299
H	-0.0608933	-2.22249	-0.164869
H	1.65494	-0.549662	-1.53372
H	0.987494	1.98656	-0.686774
H	-1.06897	1.6081	1.11431
C	6.05895	-0.654611	-0.192332
C	5.82731	0.626888	-0.645375
N	4.61695	1.07854	-0.236064
C	4.09968	0.0810317	0.468227
N	4.93074	-0.986585	0.523999
H	6.91814	-1.33125	-0.324581
H	6.51185	1.23368	-1.26025
H	3.116	0.0794049	0.964817
H	4.75008	-1.89428	1.01867
