18
  This energy is -1.3594 and Call times are: 186330
C	0.963093	0.236812	0.550249
C	0.781925	-0.927164	-0.137292
C	-0.535584	-0.857073	-0.684445
C	-1.04322	0.343548	-0.282961
O	-0.141479	1.02472	0.47194
H	1.82029	0.61823	1.12903
H	1.50366	-1.75234	-0.248042
H	-1.03846	-1.6171	-1.30377
H	-2.0192	0.822491	-0.465494
C	6.68907	1.09071	-0.20994
C	6.30539	0.568983	1.00733
N	5.91092	-0.721569	0.883332
C	6.04934	-0.99941	-0.405958
N	6.51554	0.0608637	-1.10743
H	7.0609	2.08867	-0.491634
H	6.30615	1.10064	1.97283
H	5.82382	-1.9635	-0.889597
H	6.70812	0.0924038	-2.13854
