18
  This energy is -0.907 and Call times are: 188296
C	0.625033	-0.17638	0.929852
C	0.587428	-1.06486	-0.104344
C	-0.295766	-0.49914	-1.0739
C	-0.719902	0.685104	-0.546602
O	-0.167507	0.898237	0.676691
H	1.16915	-0.192871	1.88845
H	1.12745	-2.02255	-0.177154
H	-0.576663	-0.930995	-2.04791
H	-1.40466	1.45576	-0.937049
C	4.43987	-0.171028	0.784864
C	4.9107	1.04018	0.323964
N	5.90863	0.865957	-0.576206
C	6.05631	-0.448338	-0.673378
N	5.19372	-1.11758	0.127651
H	3.64811	-0.418125	1.50985
H	4.54823	2.03665	0.624822
H	6.781	-0.973894	-1.31591
H	5.11433	-2.15908	0.228792
