18
  This energy is -1.1607 and Call times are: 101121
C	-0.206846	0.3145	1.06991
C	1.04962	0.0292377	0.622363
C	0.903992	-0.321408	-0.754575
C	-0.428606	-0.219466	-1.0269
O	-1.122	0.167799	0.0759317
H	-0.576551	0.628886	2.05972
H	1.98514	0.0624086	1.20356
H	1.70416	-0.614159	-1.45323
H	-1.00093	-0.392967	-1.95296
C	5.51442	0.953488	0.680339
C	6.14811	0.712777	-0.520344
N	5.78318	-0.487228	-1.03349
C	4.92635	-0.989059	-0.154495
N	4.73099	-0.158097	0.896659
H	5.56388	1.80862	1.37305
H	6.8621	1.38348	-1.02556
H	4.41271	-1.96091	-0.231408
H	4.10246	-0.328197	1.71963
