18
  This energy is -1.4182 and Call times are: 18545
C	-0.897286	0.44159	0.535048
C	-0.00185266	-0.374361	1.16178
C	0.969846	-0.720474	0.173792
C	0.582426	-0.0854727	-0.969471
O	-0.555938	0.628785	-0.767047
H	-1.80668	0.946347	0.900386
H	-0.0234383	-0.699862	2.21425
H	1.85145	-1.36768	0.307926
H	1.02505	-0.0622978	-1.97882
C	4.3263	-0.272555	-1.0822
C	4.7441	-1.15129	-0.105254
N	5.10656	-0.492315	1.02208
C	4.91436	0.790344	0.74556
N	4.44463	0.974805	-0.510991
H	3.9652	-0.440972	-2.10923
H	4.79049	-2.24896	-0.193633
H	5.10144	1.63591	1.42692
H	4.21443	1.89307	-0.963819
