18
  This energy is -0.5793 and Call times are: 207212
C	-0.492996	-0.625088	-0.80785
C	-1.05405	0.521418	-0.327101
C	-0.149491	1.01435	0.6623
C	0.884471	0.125549	0.698819
O	0.691216	-0.882019	-0.192512
H	-0.832123	-1.33829	-1.57699
H	-2.00908	0.974558	-0.638017
H	-0.263746	1.92566	1.27103
H	1.80395	0.0982058	1.30633
C	6.8777	0.178367	0.437985
C	6.45702	-0.899946	-0.311288
N	5.15024	-0.77989	-0.649541
C	4.76171	0.368536	-0.112154
N	5.76711	0.984163	0.553998
H	7.85616	0.421237	0.882032
H	7.07301	-1.76242	-0.613874
H	3.7523	0.805871	-0.175868
H	5.71125	1.90068	1.06206
