18
  This energy is -0.7936 and Call times are: 95543
C	0.203993	-1.08073	-0.27716
C	1.18741	-0.23854	0.151765
C	0.548671	1.015	0.398285
C	-0.768691	0.828168	0.0982442
O	-0.997069	-0.445934	-0.315904
H	0.229796	-2.14002	-0.581282
H	2.25549	-0.476194	0.281542
H	1.02303	1.94249	0.757201
H	-1.63164	1.51305	0.137131
C	6.25434	0.881271	0.424612
C	5.43664	0.91794	-0.684968
N	4.8307	-0.277587	-0.885124
C	5.27082	-1.05298	0.0965515
N	6.13167	-0.400369	0.913019
H	6.89353	1.65084	0.885846
H	5.27304	1.78562	-1.34468
H	4.99486	-2.1065	0.264385
H	6.61381	-0.79543	1.75725
