18
  This energy is -2.0892 and Call times are: 29646
C	0.119409	-0.675671	-0.903112
C	-0.353957	-1.13101	0.292283
C	-0.358585	-0.00166696	1.16675
C	0.11236	1.0441	0.428532
O	0.409226	0.650516	-0.83795
H	0.294423	-1.18826	-1.86325
H	-0.668335	-2.15903	0.534019
H	-0.677265	0.0200249	2.22129
H	0.280935	2.10287	0.685124
C	5.85802	0.547076	1.01353
C	7.08743	0.0818259	0.597302
N	7.0024	-0.497611	-0.6248
C	5.72511	-0.392228	-0.965434
N	4.9939	0.230241	-0.0107254
H	5.54727	1.06396	1.93538
H	8.03426	0.153866	1.15691
H	5.27169	-0.75382	-1.9024
H	3.9648	0.43289	-0.0443591
