18
  This energy is -1.055 and Call times are: 136129
C	-0.803187	-0.548171	-0.583781
C	-0.452535	0.741145	-0.85779
C	0.575974	1.07349	0.0759312
C	0.763035	-0.0420765	0.838097
O	-0.0708935	-1.04218	0.449037
H	-1.54848	-1.21689	-1.04487
H	-0.875696	1.3928	-1.63906
H	1.1088	2.03405	0.162552
H	1.44881	-0.248375	1.67619
C	5.86361	0.801906	0.398664
C	4.52708	0.699566	0.721702
N	3.94742	-0.343045	0.0786935
C	4.92064	-0.88545	-0.640514
N	6.0955	-0.231173	-0.481769
H	6.64022	1.51306	0.72221
H	3.97066	1.35935	1.40722
H	4.82765	-1.76278	-1.30072
H	7.00901	-0.466105	-0.941742
