18
  This energy is -1.0427 and Call times are: 27097
C	-0.721075	0.595271	-0.641953
C	0.63042	0.651971	-0.816941
C	1.18886	-0.221734	0.165355
C	0.129318	-0.735214	0.853895
O	-1.04485	-0.247094	0.374219
H	-1.54821	1.09938	-1.16824
H	1.17906	1.24915	-1.56291
H	2.25656	-0.436662	0.332421
H	0.0791932	-1.44678	1.69438
C	5.8218	-0.833485	-0.646626
C	5.85854	-0.706842	0.725874
N	5.14566	0.370067	1.13646
C	4.66848	0.909458	0.0229179
N	5.0482	0.220387	-1.07917
H	6.27625	-1.57427	-1.32357
H	6.38665	-1.37323	1.42721
H	4.03569	1.80919	-0.0425823
H	4.80049	0.445965	-2.07366
