18
  This energy is -2.05 and Call times are: 174821
C	-0.18759	-0.498861	1.00117
C	-0.0254516	0.849626	0.876
C	0.186519	1.09042	-0.515835
C	0.1352	-0.132179	-1.11832
O	-0.0925042	-1.11421	-0.20685
H	-0.373891	-1.13413	1.88264
H	-0.052413	1.59954	1.68285
H	0.356582	2.06415	-1.00269
H	0.243834	-0.432405	-2.17346
C	3.64275	0.994954	0.626005
C	3.26054	-0.26446	1.03702
N	3.46485	-1.18046	0.0594233
C	3.97189	-0.491934	-0.954217
N	4.09865	0.82419	-0.662088
H	3.62323	1.96816	1.14178
H	2.84102	-0.528581	2.02145
H	4.26792	-0.901921	-1.93325
H	4.47292	1.57204	-1.29604
