18
  This energy is -1.1477 and Call times are: 87210
C	-0.807537	0.137212	0.784512
C	0.391575	-0.448995	1.06535
C	1.12766	-0.439436	-0.158669
C	0.313375	0.151769	-1.07943
O	-0.872524	0.510244	-0.520722
H	-1.68592	0.344763	1.41746
H	0.724366	-0.848103	2.03697
H	2.14463	-0.829659	-0.324754
H	0.459179	0.37262	-2.14957
C	4.51021	0.975965	-0.291081
C	4.44991	0.299561	0.908913
N	5.26194	-0.785347	0.899626
C	5.82387	-0.782002	-0.301561
N	5.40303	0.260061	-1.05694
H	3.99804	1.88575	-0.642516
H	3.83502	0.574924	1.78123
H	6.55037	-1.5191	-0.679872
H	5.70025	0.48062	-2.03891
