18
  This energy is -1.1842 and Call times are: 173636
C	-0.303848	0.298738	1.05111
C	0.928252	-0.211039	0.764002
C	0.930323	-0.460048	-0.642451
C	-0.300693	-0.0804534	-1.09065
O	-1.06742	0.385419	-0.0698094
H	-0.753392	0.633773	2.00027
H	1.75292	-0.393429	1.47164
H	1.75691	-0.873889	-1.2421
H	-0.747356	-0.091889	-2.09842
C	5.60801	-1.08846	0.447526
C	6.61497	-0.482971	-0.273963
N	6.26846	0.776634	-0.634291
C	5.05116	0.9519	-0.138227
N	4.60877	-0.143973	0.522795
H	5.53423	-2.09117	0.897708
H	7.58531	-0.93242	-0.54097
H	4.43842	1.86317	-0.229756
H	3.6813	-0.253314	1.00144
