18
  This energy is -0.8325 and Call times are: 58775
C	-0.0239765	-1.08838	-0.318216
C	-0.887838	-0.160866	-0.822042
C	-0.549363	1.07361	-0.1883
C	0.491456	0.791489	0.646851
O	0.825413	-0.524205	0.580259
H	0.0870563	-2.16726	-0.515517
H	-1.68359	-0.32912	-1.56539
H	-1.0305	2.05279	-0.342591
H	1.07344	1.43025	1.33134
C	5.47666	0.925394	0.621986
C	4.24167	0.775235	0.0275177
N	4.14772	-0.417242	-0.609415
C	5.31997	-1.00463	-0.410838
N	6.15589	-0.235319	0.32604
H	5.90592	1.74863	1.21491
H	3.41674	1.50597	0.0467846
H	5.61908	-1.99785	-0.782687
H	7.13489	-0.477005	0.616565
