18
  This energy is -0.7308 and Call times are: 28060
C	1.06481	-0.355787	0.161205
C	0.688663	0.344831	-0.946955
C	-0.7061	0.608481	-0.788075
C	-1.05914	0.0457023	0.403149
O	0.0100146	-0.547506	0.996462
H	2.03936	-0.769053	0.468989
H	1.32913	0.645787	-1.79154
H	-1.36206	1.1545	-1.48498
H	-2.02528	-0.000720485	0.931999
C	4.92481	0.198305	-0.435574
C	5.58879	-1.00919	-0.388484
N	6.81108	-0.872831	0.180668
C	6.90501	0.414366	0.485506
N	5.79315	1.10266	0.133905
H	3.92903	0.469015	-0.821171
H	5.20781	-1.97634	-0.754987
H	7.76569	0.905769	0.96714
H	5.62468	2.12957	0.269314
