18
  This energy is -1.6086 and Call times are: 76956
C	1.02305	0.393143	-0.291904
C	0.860611	-0.733956	0.458853
C	-0.549482	-0.901057	0.613233
C	-1.12425	0.138679	-0.056814
O	-0.178687	0.93902	-0.61572
H	1.92904	0.903598	-0.657787
H	1.65416	-1.38261	0.863356
H	-1.06661	-1.70503	1.16123
H	-2.18027	0.41663	-0.207893
C	4.69522	1.10895	0.336722
C	5.4601	0.697118	-0.734025
N	5.48002	-0.654574	-0.829117
C	4.73034	-1.07967	0.178804
N	4.23426	-0.0544921	0.911262
H	4.45435	2.11409	0.717795
H	5.99794	1.35108	-1.43965
H	4.51173	-2.13096	0.426247
H	3.61624	-0.131291	1.7559
