18
  This energy is -0.8114 and Call times are: 13358
C	-1.04893	-0.404335	-0.150507
C	0.027189	-1.21952	0.0439526
C	1.15278	-0.352661	0.19136
C	0.665125	0.915718	0.0739668
O	-0.677679	0.902932	-0.135145
H	-2.1165	-0.628353	-0.309793
H	0.0282483	-2.32079	0.079977
H	2.20007	-0.648197	0.364399
H	1.16371	1.89784	0.119784
C	6.05642	0.975276	-0.352594
C	5.40671	0.0584958	-1.15168
N	4.87623	-0.945335	-0.411794
C	5.19563	-0.652418	0.841524
N	5.90735	0.496174	0.929758
H	6.59631	1.90375	-0.597562
H	5.31121	0.103381	-2.24882
H	4.93363	-1.24468	1.73305
H	6.27546	0.937631	1.80775
