18
  This energy is -1.4763 and Call times are: 158347
C	0.146455	0.861924	0.722522
C	0.586616	0.90749	-0.567655
C	0.221627	-0.344734	-1.14975
C	-0.409353	-1.04497	-0.1639
O	-0.46419	-0.323202	0.98634
H	0.20551	1.59742	1.54156
H	1.11529	1.73945	-1.06004
H	0.411045	-0.676709	-2.1832
H	-0.858144	-2.05183	-0.154797
C	4.79442	-0.492853	0.99329
C	5.04725	0.78721	0.547581
N	4.43336	1.02215	-0.637512
C	3.80208	-0.107868	-0.925906
N	3.98886	-1.05206	0.0265657
H	5.11987	-1.02758	1.89976
H	5.66163	1.54545	1.05988
H	3.1889	-0.297977	-1.82151
H	3.59506	-2.02478	0.0282892
