18
  This energy is -0.8156 and Call times are: 127071
C	0.165369	-0.373443	1.05811
C	-1.05117	-0.43313	0.444225
C	-0.860109	0.123478	-0.857236
C	0.456313	0.474164	-0.923768
O	1.09768	0.177839	0.2372
H	0.49326	-0.686019	2.06311
H	-1.989	-0.829367	0.865605
H	-1.62036	0.244605	-1.64556
H	1.05004	0.936054	-1.72962
C	5.12558	-0.711109	-0.934815
C	4.37491	0.420044	-0.693731
N	4.72513	0.997691	0.481077
C	5.68942	0.227823	0.966964
N	5.96725	-0.815721	0.15001
H	5.12058	-1.42521	-1.77361
H	3.58686	0.829706	-1.34643
H	6.22632	0.382415	1.91673
H	6.68673	-1.56226	0.312109
