18
  This energy is -0.7725 and Call times are: 208839
C	0.507102	0.781113	0.647387
C	1.18423	0.0578905	-0.290069
C	0.21858	-0.807812	-0.888567
C	-0.963395	-0.537186	-0.264011
O	-0.805661	0.430695	0.676913
H	0.840687	1.56419	1.34793
H	2.25618	0.127087	-0.535499
H	0.392964	-1.54328	-1.6903
H	-1.97342	-0.958649	-0.396217
C	6.47504	-0.568678	-0.678974
C	6.37683	0.794775	-0.49871
N	5.36891	1.10372	0.352855
C	4.84384	-0.0636341	0.69956
N	5.47588	-1.10252	0.103892
H	7.16232	-1.17657	-1.28862
H	7.01518	1.56111	-0.967845
H	3.99547	-0.214954	1.3863
H	5.24818	-2.12068	0.216893
