18
  This energy is -1.5056 and Call times are: 61397
C	-0.210795	1.11345	-0.0469435
C	0.882368	0.603197	0.589464
C	0.79989	-0.814111	0.432769
C	-0.336394	-1.04484	-0.285559
O	-0.966153	0.121131	-0.587089
H	-0.559008	2.15032	-0.184392
H	1.668	1.16819	1.11639
H	1.50886	-1.56649	0.814051
H	-0.799368	-1.98001	-0.641032
C	3.94371	-0.540415	-0.72185
C	4.30791	0.789144	-0.749667
N	5.20196	1.07144	0.228852
C	5.39168	-0.0786158	0.861309
N	4.6554	-1.08095	0.325765
H	3.25153	-1.12081	-1.35238
H	3.9416	1.54977	-1.45826
H	6.05871	-0.242709	1.72292
H	4.63129	-2.07959	0.647323
