18
  This energy is -1.6549 and Call times are: 12203
C	0.21956	0.712078	-0.855067
C	0.37385	-0.638153	-0.971023
C	0.00464245	-1.18413	0.296144
C	-0.342672	-0.119342	1.07459
O	-0.217376	1.04657	0.387596
H	0.385163	1.53127	-1.57392
H	0.713575	-1.19392	-1.85973
H	0.00119212	-2.24738	0.585256
H	-0.690785	-0.0598244	2.11887
C	4.64262	-0.990678	-0.330469
C	4.52238	-0.501669	0.953103
N	3.83388	0.665479	0.968835
C	3.52816	0.899646	-0.300152
N	3.9936	-0.0701266	-1.12265
H	5.12793	-1.89833	-0.723136
H	4.92008	-0.970104	1.86812
H	2.96506	1.76625	-0.682437
H	3.88143	-0.112662	-2.16518
