18
  This energy is -0.8997 and Call times are: 129856
C	0.227532	0.634466	0.912186
C	0.495134	-0.702216	0.866962
C	0.0746055	-1.14165	-0.425389
C	-0.412851	-0.0347095	-1.05582
O	-0.327212	1.05897	-0.253604
H	0.382729	1.38474	1.70481
H	0.943665	-1.31709	1.66374
H	0.132259	-2.16497	-0.829845
H	-0.842778	0.104133	-2.06137
C	4.23711	-0.617975	0.275771
C	4.69826	-0.32557	-0.990322
N	5.83738	0.406698	-0.938438
C	6.08199	0.567958	0.354924
N	5.14572	-0.0313493	1.12812
H	3.35606	-1.18314	0.619089
H	4.22943	-0.629854	-1.9403
H	6.93276	1.11611	0.790761
H	5.11737	-0.0462871	2.17703
