18
  This energy is -0.945 and Call times are: 25909
C	-0.0510394	-1.12216	0.156687
C	0.785184	-0.549378	-0.756015
C	0.564026	0.858416	-0.659458
C	-0.387819	1.02164	0.303725
O	-0.774878	-0.177487	0.812934
H	-0.222475	-2.17607	0.430783
H	1.48732	-1.06636	-1.42968
H	1.0606	1.64997	-1.24337
H	-0.866974	1.92653	0.712171
C	5.66517	-1.04944	-0.387847
C	4.39354	-0.718278	0.0298086
N	4.32723	0.580401	0.411315
C	5.55307	1.05311	0.231021
N	6.39658	0.109032	-0.249385
H	6.0873	-1.99593	-0.761337
H	3.52273	-1.39315	0.0627007
H	5.88758	2.08307	0.434749
H	7.41392	0.235468	-0.473652
