18
  This energy is -1.393 and Call times are: 10733
C	0.417054	-0.686782	-0.800499
C	0.874061	0.58545	-0.618993
C	0.115046	1.1226	0.465201
C	-0.738781	0.131202	0.850522
O	-0.568064	-0.980969	0.0883261
H	0.706627	-1.47229	-1.51769
H	1.6662	1.09457	-1.19119
H	0.201684	2.13101	0.900757
H	-1.5053	0.0930867	1.64188
C	4.10242	0.496136	0.709086
C	4.04212	-0.761964	0.14811
N	5.13316	-1.00863	-0.616942
C	5.86751	0.0922523	-0.530911
N	5.28894	1.02916	0.257166
H	3.4081	1.03198	1.37567
H	3.23092	-1.49611	0.281691
H	6.83723	0.265357	-1.02478
H	5.67137	1.98037	0.481232
