18
  This energy is -0.498 and Call times are: 135003
C	-0.725042	-0.678479	0.548071
C	-1.1432	0.301703	-0.30326
C	0.0438639	0.929754	-0.789634
C	1.08262	0.277922	-0.192584
O	0.631368	-0.70725	0.62767
H	-1.28583	-1.41232	1.14994
H	-2.18323	0.556866	-0.562712
H	0.107192	1.76868	-1.50117
H	2.17351	0.417951	-0.267457
C	5.22725	0.778551	0.131401
C	5.92173	0.501702	-1.02713
N	6.86202	-0.451361	-0.817264
C	6.75129	-0.764576	0.466582
N	5.77953	-0.0503084	1.08228
H	4.4065	1.48323	0.339536
H	5.76118	0.97257	-2.01067
H	7.35673	-1.51	1.00696
H	5.50005	-0.1155	2.09169
