18
  This energy is -0.9834 and Call times are: 43401
C	0.386854	0.997178	0.377333
C	-0.920433	0.800601	0.0415782
C	-1.01509	-0.560369	-0.38141
C	0.242715	-1.07532	-0.266796
O	1.11161	-0.13797	0.195172
H	0.919359	1.88609	0.75354
H	-1.73625	1.53982	0.0871975
H	-1.91889	-1.08616	-0.728955
H	0.64352	-2.08007	-0.479135
C	4.27458	-0.92624	-0.0307387
C	5.22797	-0.590367	-0.968491
N	5.88411	0.54132	-0.614533
C	5.33983	0.906128	0.538422
N	4.36459	0.0534683	0.932723
H	3.5622	-1.76512	0.0175529
H	5.45416	-1.14434	-1.89413
H	5.61768	1.78906	1.1363
H	3.78707	0.125055	1.80599
