18
  This energy is -0.9611 and Call times are: 182607
C	0.319381	1.00579	0.415682
C	0.936312	0.428806	-0.655236
C	0.261085	-0.810604	-0.874439
C	-0.708859	-0.881598	0.0818767
O	-0.687689	0.219274	0.878522
H	0.500443	1.9601	0.936988
H	1.78204	0.835212	-1.23288
H	0.479193	-1.55622	-1.65584
H	-1.46731	-1.6518	0.298183
C	6.14227	-0.0805644	0.818039
C	5.74059	1.0587	0.153308
N	4.7436	0.787001	-0.723441
C	4.52759	-0.515871	-0.603079
N	5.34581	-1.08441	0.313908
H	6.91282	-0.242591	1.58845
H	6.15231	2.07186	0.290625
H	3.78237	-1.10421	-1.16231
H	5.36905	-2.09698	0.588519
