18
  This energy is -0.7769 and Call times are: 157227
C	-0.742748	0.855278	-0.0567954
C	-0.399981	0.262661	1.1229
C	0.544621	-0.755384	0.789095
C	0.695701	-0.695009	-0.565122
O	-0.0830694	0.282981	-1.0981
H	-1.43478	1.68233	-0.285548
H	-0.77473	0.516912	2.1274
H	1.04787	-1.4474	1.48332
H	1.31799	-1.28447	-1.25834
C	4.52712	0.085321	0.0464791
C	5.41993	0.397819	1.04966
N	6.69709	0.179057	0.652749
C	6.59696	-0.267457	-0.591929
N	5.30904	-0.341866	-1.00342
H	3.42735	0.13504	0.00673603
H	5.16544	0.777214	2.05273
H	7.43488	-0.554574	-1.24743
H	4.97062	-0.663664	-1.94319
