18
  This energy is -1.2319 and Call times are: 205222
C	-0.081719	1.01164	-0.506259
C	-0.382821	0.82775	0.811275
C	-0.159628	-0.558433	1.07357
C	0.258162	-1.09925	-0.106827
O	0.311539	-0.154674	-1.08251
H	-0.10621	1.91108	-1.14318
H	-0.727521	1.59161	1.52667
H	-0.296871	-1.08302	2.03278
H	0.544222	-2.12855	-0.378784
C	5.40489	-0.199925	-0.725464
C	4.97918	1.02268	-0.250969
N	3.90612	0.883459	0.56491
C	3.66703	-0.420561	0.596444
N	4.5435	-1.11681	-0.165549
H	6.23226	-0.473269	-1.39947
H	5.42709	2.00275	-0.482709
H	2.86292	-0.919123	1.1613
H	4.56312	-2.15693	-0.303527
