18
  This energy is -1.2162 and Call times are: 185626
C	-1.05509	-0.291946	-0.296568
C	-0.775376	0.340646	0.879
C	0.639388	0.53668	0.890531
C	1.09932	0.0065771	-0.279008
O	0.0781007	-0.503866	-1.01628
H	-2.00656	-0.639851	-0.731226
H	-1.49329	0.639271	1.65971
H	1.23648	1.01752	1.68196
H	2.11636	-0.068566	-0.697621
C	5.00421	0.68686	-0.949977
C	4.53274	1.05764	0.291548
N	4.55002	0.0117464	1.15313
C	5.03039	-1.00402	0.44878
N	5.31946	-0.647774	-0.825237
H	5.13339	1.2592	-1.88233
H	4.18043	2.06109	0.581058
H	5.1909	-2.03017	0.816839
H	5.70943	-1.26975	-1.57512
