18
  This energy is -0.8706 and Call times are: 28382
C	-0.24578	1.08166	0.236669
C	0.743504	0.731146	-0.63444
C	0.747769	-0.696798	-0.667236
C	-0.239287	-1.09283	0.186728
O	-0.856467	-0.019727	0.747578
H	-0.608294	2.0668	0.57332
H	1.40399	1.41004	-1.19744
H	1.41221	-1.34517	-1.26072
H	-0.595868	-2.09453	0.477748
C	4.60155	-0.528973	-0.545952
C	4.73735	-0.317847	0.809824
N	5.89844	0.322017	1.09081
C	6.48073	0.507143	-0.0861685
N	5.73827	0.0115913	-1.10439
H	3.80308	-1.0096	-1.1333
H	4.01834	-0.615755	1.59029
H	7.45102	0.999814	-0.25949
H	5.98208	0.0347524	-2.12481
