18
  This energy is -1.1906 and Call times are: 205062
C	-0.841441	0.72861	-0.217957
C	-0.413139	0.465517	1.05
C	0.642901	-0.486855	0.916263
C	0.766706	-0.721669	-0.421611
O	-0.131957	0.0122551	-1.12926
H	-1.63153	1.39632	-0.598984
H	-0.801864	0.898649	1.98562
H	1.23576	-0.938946	1.72758
H	1.446	-1.37909	-0.988719
C	5.6307	0.56014	-0.8207
C	4.30392	0.77058	-0.510056
N	3.89946	-0.0517012	0.488333
C	4.97126	-0.769532	0.795893
N	6.0409	-0.438069	0.0345807
H	6.29002	1.03427	-1.56504
H	3.63124	1.501	-0.988434
H	5.02801	-1.55128	1.57041
H	6.99997	-0.860921	0.0860409
