18
  This energy is -1.3873 and Call times are: 164157
C	-1.1158	0.202431	0.0204496
C	-0.414004	0.0958957	-1.14424
C	0.939251	-0.156932	-0.763589
C	0.94495	-0.182578	0.600113
O	-0.30166	0.0350541	1.09571
H	-2.1839	0.39304	0.215608
H	-0.809596	0.186283	-2.16866
H	1.8015	-0.301546	-1.43419
H	1.75977	-0.343754	1.32491
C	4.53944	0.703366	0.871989
C	4.40031	0.925627	-0.481668
N	4.93083	-0.092908	-1.20114
C	5.39731	-0.943804	-0.297262
N	5.18559	-0.508888	0.967495
H	4.23454	1.3021	1.74497
H	3.92663	1.80267	-0.952071
H	5.90273	-1.90029	-0.506846
H	5.46114	-1.00133	1.85227
