18
  This energy is -1.17 and Call times are: 206088
C	-0.512357	-0.794741	-0.62632
C	0.453386	0.0243854	-1.13302
C	0.848265	0.875874	-0.0563793
C	0.088968	0.501913	1.0132
O	-0.747564	-0.517037	0.683096
H	-1.1009	-1.60418	-1.08858
H	0.848096	0.0285789	-2.16175
H	1.61001	1.67152	-0.0843782
H	0.0498562	0.877241	2.04898
C	5.04464	0.0102557	-1.12526
C	4.44353	1.04111	-0.434502
N	4.18121	0.683611	0.84608
C	4.61792	-0.564282	0.949368
N	5.14724	-1.0156	-0.212411
H	5.39498	-0.0634611	-2.16707
H	4.19441	2.03641	-0.837194
H	4.57469	-1.19397	1.85262
H	5.5576	-1.96591	-0.384918
