18
  This energy is -1.4271 and Call times are: 193943
C	-0.221305	-1.09762	-0.180711
C	-0.0932894	-0.200792	-1.20036
C	0.179046	1.05774	-0.582256
C	0.19341	0.81888	0.760544
O	-0.0492515	-0.49216	1.02379
H	-0.431445	-2.17979	-0.180937
H	-0.181762	-0.405012	-2.27951
H	0.343707	2.02331	-1.08688
H	0.362198	1.48783	1.62035
C	3.78526	0.791691	-0.30745
C	3.7433	-0.0612065	0.775117
N	4.85126	-0.839835	0.826964
C	5.5778	-0.471379	-0.219459
N	4.97805	0.50941	-0.934961
H	3.07444	1.55411	-0.663812
H	2.93343	-0.128692	1.5197
H	6.55661	-0.887023	-0.508247
H	5.35068	0.967524	-1.80245
