18
  This energy is -0.5995 and Call times are: 107780
C	-0.408862	0.235555	-1.03138
C	0.639411	0.918204	-0.487793
C	0.856804	0.340069	0.80008
C	-0.0778133	-0.644835	0.929803
O	-0.859306	-0.722651	-0.179352
H	-0.920841	0.334394	-2.00265
H	1.20304	1.74585	-0.947602
H	1.6225	0.630342	1.53734
H	-0.287311	-1.35041	1.75048
C	5.04766	0.113482	0.514579
C	5.72969	-1.0608	0.275766
N	6.91527	-0.821623	-0.33554
C	6.96854	0.496032	-0.475432
N	5.866	1.10515	0.0215243
H	4.07047	0.307174	0.984812
H	5.38755	-2.07634	0.533602
H	7.79167	1.06682	-0.934664
H	5.6716	2.13636	0.0296785
