18
  This energy is -1.2695 and Call times are: 87466
C	-0.0501875	-0.816462	-0.785666
C	-1.06667	-0.585881	0.0940931
C	-0.636876	0.503934	0.911223
C	0.6043	0.843117	0.458666
O	0.978378	0.0470643	-0.577373
H	0.0615322	-1.55489	-1.59653
H	-2.02317	-1.12877	0.160924
H	-1.19389	0.974017	1.73757
H	1.31403	1.62106	0.784762
C	4.84177	-0.339754	-1.03658
C	4.7963	0.944753	-0.537464
N	4.21829	0.97264	0.68795
C	3.90636	-0.289766	0.948056
N	4.26194	-1.11972	-0.0610643
H	5.23266	-0.740635	-1.98528
H	5.17021	1.85189	-1.0396
H	3.41651	-0.661744	1.86233
H	4.1225	-2.15931	-0.0940523
