18
  This energy is -0.9769 and Call times are: 113882
C	0.688955	0.637926	-0.636233
C	-0.620815	0.958491	-0.431012
C	-1.14787	-0.0692742	0.409242
C	-0.113652	-0.927163	0.643314
O	1.01579	-0.510695	0.0125035
H	1.48206	1.13855	-1.21555
H	-1.16157	1.83116	-0.83119
H	-2.17852	-0.151911	0.790075
H	-0.0538941	-1.85657	1.23313
C	4.67918	0.683839	-0.630772
C	5.98869	0.952017	-0.292549
N	6.51991	-0.0556098	0.441624
C	5.54366	-0.945507	0.558418
N	4.41331	-0.545862	-0.0710097
H	3.94225	1.26177	-1.21084
H	6.55971	1.85451	-0.565116
H	5.60275	-1.90665	1.09409
H	3.50705	-1.07243	-0.122751
