18
  This energy is -0.9155 and Call times are: 148677
C	0.265246	1.02136	0.415782
C	-0.904999	0.39026	0.720112
C	-0.873481	-0.852432	0.0166642
C	0.313242	-0.871026	-0.655434
O	1.02142	0.265434	-0.423145
H	0.672112	1.99733	0.727534
H	-1.7097	0.762489	1.37433
H	-1.64888	-1.63528	0.0170347
H	0.763962	-1.62414	-1.32246
C	5.54269	0.313206	0.857555
C	5.09063	1.1059	-0.176092
N	4.24414	0.421032	-0.982889
C	4.17134	-0.791916	-0.451776
N	4.93642	-0.907201	0.659506
H	6.23	0.524161	1.69221
H	5.3601	2.15971	-0.354166
H	3.57287	-1.63351	-0.836212
H	5.04674	-1.76317	1.2565
