18
  This energy is -0.6316 and Call times are: 13839
C	-0.80741	-0.795556	0.0397449
C	-0.504641	-0.00796132	1.11138
C	0.546781	0.855796	0.677151
C	0.793703	0.519781	-0.621501
O	-0.0242019	-0.486928	-1.02719
H	-1.54905	-1.60089	-0.0893777
H	-0.974565	-0.0327593	2.1077
H	1.05415	1.63385	1.26986
H	1.51502	0.916283	-1.35481
C	6.91726	-0.591194	-0.0277192
C	6.68358	0.625666	0.577086
N	5.3956	1.01372	0.412638
C	4.8324	0.0413011	-0.291508
N	5.70864	-0.94939	-0.581903
H	7.82772	-1.20706	-0.100542
H	7.42125	1.23057	1.12916
H	3.78169	0.00417423	-0.621457
H	5.50593	-1.82377	-1.12562
