18
  This energy is -1.2713 and Call times are: 68494
C	-0.527778	0.841104	0.548083
C	-0.643573	0.661288	-0.799
C	0.154135	-0.481738	-1.11088
C	0.686978	-0.899506	0.0731456
O	0.281094	-0.103119	1.09688
H	-0.96474	1.59302	1.22553
H	-1.23173	1.27227	-1.50247
H	0.307446	-0.933194	-2.10425
H	1.35995	-1.738	0.316643
C	4.02456	0.476106	0.0429405
C	5.20693	1.12683	-0.239392
N	6.25669	0.270573	-0.202908
C	5.72758	-0.906867	0.100903
N	4.38468	-0.835275	0.259237
H	2.98698	0.841246	0.103234
H	5.32134	2.19881	-0.468765
H	6.27795	-1.85407	0.219812
H	3.74054	-1.62775	0.50075
