18
  This energy is -1.1563 and Call times are: 162330
C	-0.518153	1.00047	0.130296
C	0.20804	0.418642	1.12754
C	0.695555	-0.811438	0.589628
C	0.22424	-0.872706	-0.688841
O	-0.518952	0.22559	-0.986203
H	-1.07518	1.95094	0.0905125
H	0.382869	0.815827	2.14035
H	1.32353	-1.5576	1.10245
H	0.345547	-1.63377	-1.47708
C	4.16537	0.393912	-0.399322
C	4.43227	-0.858085	0.112939
N	5.7325	-0.969532	0.478308
C	6.27018	0.208846	0.193794
N	5.36596	1.06544	-0.337457
H	3.237	0.83966	-0.790462
H	3.70994	-1.68297	0.225444
H	7.32132	0.49795	0.354267
H	5.5453	2.05297	-0.643845
