18
  This energy is -2.8044 and Call times are: 129530
C	-0.154186	-0.727182	0.856641
C	0.445278	-1.09261	-0.312751
C	0.455396	0.0789569	-1.12972
C	-0.138777	1.05689	-0.387447
O	-0.517275	0.582163	0.82844
H	-0.378378	-1.29785	1.77279
H	0.840679	-2.08739	-0.573851
H	0.860201	0.173146	-2.15019
H	-0.348891	2.11635	-0.608033
C	3.94601	1.04672	0.28873
C	5.22766	0.793873	-0.152377
N	5.40989	-0.527268	-0.392978
C	4.24571	-1.09188	-0.102238
N	3.33031	-0.184741	0.313377
H	3.44522	1.98455	0.577218
H	6.02414	1.54105	-0.301337
H	4.00916	-2.16558	-0.175896
H	2.3402	-0.381938	0.599815
