18
  This energy is -0.9302 and Call times are: 136257
C	-0.315607	-0.891817	-0.625663
C	0.945323	-0.762479	-0.121976
C	0.954112	0.47105	0.598056
C	-0.302223	0.986611	0.470808
O	-1.09088	0.167374	-0.273422
H	-0.779677	-1.67972	-1.24137
H	1.78502	-1.46522	-0.245122
H	1.80198	0.914867	1.14417
H	-0.754064	1.91504	0.856951
C	4.91827	-0.0741149	-0.876644
C	4.81812	-0.64976	0.372254
N	5.90115	-0.358301	1.13291
C	6.67027	0.395292	0.358843
N	6.1215	0.595401	-0.862792
H	4.24106	-0.0928989	-1.7453
H	3.98379	-1.27017	0.738098
H	7.64532	0.826969	0.636646
H	6.534	1.15412	-1.64951
