18
  This energy is -0.9705 and Call times are: 87626
C	-0.20995	0.0745008	1.1121
C	-0.878656	-0.792741	0.299022
C	-0.342151	-0.594313	-1.00976
C	0.607043	0.376667	-0.88092
O	0.701134	0.796612	0.40819
H	-0.28886	0.270874	2.19398
H	-1.67031	-1.50113	0.591545
H	-0.635129	-1.11826	-1.93374
H	1.27463	0.849133	-1.62008
C	5.08373	0.727299	0.917938
C	4.31601	0.710914	-0.227259
N	4.72811	-0.260182	-1.07794
C	5.74762	-0.844018	-0.462818
N	6.00127	-0.284653	0.743979
H	5.04341	1.36616	1.81447
H	3.47213	1.38239	-0.454939
H	6.34372	-1.68552	-0.851093
H	6.75357	-0.567878	1.41859
