18
  This energy is -1.0573 and Call times are: 38062
C	-0.0659389	0.0148312	1.13218
C	0.928249	0.652485	0.450006
C	0.672856	0.406753	-0.933652
C	-0.454853	-0.359371	-0.974865
O	-0.919546	-0.608341	0.277767
H	-0.274289	-0.069596	2.2114
H	1.7582	1.23723	0.878208
H	1.26542	0.763092	-1.79155
H	-1.01856	-0.78571	-1.82087
C	5.77934	-1.05672	0.196634
C	4.45376	-0.785866	-0.0691118
N	4.25214	0.542701	-0.244526
C	5.4481	1.09396	-0.0881966
N	6.4023	0.171208	0.179413
H	6.30588	-2.00476	0.390323
H	3.63923	-1.52528	-0.137417
H	5.68129	2.16858	-0.159129
H	7.42233	0.355977	0.342674
