18
  This energy is -1.1362 and Call times are: 190153
C	-0.253126	1.07344	-0.264668
C	-1.21246	0.140783	0.000265798
C	-0.511731	-1.07046	0.286597
C	0.813956	-0.771046	0.17136
O	0.990239	0.533931	-0.164751
H	-0.324921	2.14025	-0.533032
H	-2.30406	0.290716	-0.00537433
H	-0.952002	-2.04637	0.547099
H	1.71716	-1.38956	0.301398
C	4.16468	0.511886	-0.763132
C	4.9999	-0.55729	-1.00892
N	5.70873	-0.888103	0.0977059
C	5.31475	-0.0274268	1.02649
N	4.38462	0.837293	0.556687
H	3.4531	1.04638	-1.41236
H	5.10374	-1.09592	-1.96493
H	5.675	0.0140403	2.06703
H	3.91962	1.60865	1.09523
