18
  This energy is -0.5315 and Call times are: 110218
C	0.0695	0.781188	0.819338
C	-1.06629	0.0613593	0.590881
C	-0.766161	-0.805645	-0.503806
C	0.526544	-0.539094	-0.847661
O	1.05242	0.427458	-0.0500088
H	0.302504	1.56381	1.55992
H	-2.01981	0.133666	1.13831
H	-1.4407	-1.53921	-0.973878
H	1.17715	-0.962821	-1.63023
C	6.01452	-0.852712	-0.383969
C	4.67276	-0.968135	-0.0881521
N	4.16076	0.215306	0.328774
C	5.181	1.06168	0.291747
N	6.32093	0.465824	-0.131455
H	6.74852	-1.59093	-0.744286
H	4.06497	-1.88413	-0.168088
H	5.14861	2.12897	0.563941
H	7.25936	0.921454	-0.24549
