18
  This energy is -0.3912 and Call times are: 157291
C	-0.148866	1.11436	0.14984
C	-0.211918	0.527868	-1.07997
C	0.0237833	-0.863907	-0.861967
C	0.210061	-1.00505	0.481815
O	0.108049	0.192994	1.11529
H	-0.267485	2.16363	0.466378
H	-0.405034	1.02541	-2.04395
H	0.049751	-1.66001	-1.62331
H	0.419399	-1.89229	1.10168
C	6.08101	-0.839286	0.670313
C	6.00434	0.506984	0.958102
N	5.38404	1.18501	-0.0379014
C	5.07706	0.262874	-0.940153
N	5.47633	-0.97377	-0.55951
H	6.50881	-1.68301	1.23481
H	6.38548	1.00122	1.86657
H	4.55997	0.438603	-1.89721
H	5.34944	-1.86518	-1.09853
