18
  This energy is -0.7061 and Call times are: 91093
C	0.649735	-0.84819	0.380552
C	-0.176691	-0.13689	1.19997
C	-0.81764	0.829211	0.365735
C	-0.326308	0.622998	-0.88983
O	0.571063	-0.397614	-0.899215
H	1.33538	-1.68723	0.583438
H	-0.320519	-0.278334	2.28321
H	-1.55723	1.58575	0.673555
H	-0.532483	1.1282	-1.8477
C	4.98164	0.674265	0.643756
C	4.632	-0.433717	-0.0987199
N	5.71314	-0.96962	-0.715532
C	6.72962	-0.197036	-0.357073
N	6.34006	0.808223	0.462246
H	4.37999	1.35421	1.26763
H	3.619	-0.856035	-0.200397
H	7.77999	-0.322385	-0.665719
H	6.95556	1.54861	0.879683
