18
  This energy is -1.1069 and Call times are: 87498
C	-0.494075	0.516652	0.880546
C	-0.706607	0.907444	-0.408828
C	0.0768164	0.0288921	-1.21785
C	0.698928	-0.821214	-0.351436
O	0.361701	-0.537756	0.934232
H	-0.887261	0.90211	1.83557
H	-1.35047	1.73169	-0.755452
H	0.16114	0.0365348	-2.31645
H	1.3958	-1.65817	-0.522078
C	5.37779	0.665104	0.695223
C	4.43051	1.10641	-0.204259
N	3.83629	0.0662093	-0.837824
C	4.41274	-1.01629	-0.333309
N	5.3491	-0.707966	0.595001
H	6.04793	1.21272	1.37681
H	4.16518	2.15673	-0.407425
H	4.18697	-2.05923	-0.608121
H	5.94054	-1.38575	1.13543
