18
  This energy is -0.8301 and Call times are: 199054
C	-0.514261	0.979173	-0.251311
C	-1.08727	0.0386924	0.55338
C	-0.148007	-1.03459	0.630555
C	0.916061	-0.655236	-0.133788
O	0.709446	0.571965	-0.679957
H	-0.869882	1.96597	-0.590449
H	-2.07254	0.0950922	1.04345
H	-0.260232	-1.9758	1.19236
H	1.86734	-1.16181	-0.365546
C	4.99098	-0.163419	-1.1466
C	4.79928	-1.07725	-0.132053
N	5.14385	-0.553113	1.06922
C	5.54779	0.68118	0.80093
N	5.47451	0.964113	-0.521253
H	4.82314	-0.233353	-2.2331
H	4.4185	-2.10537	-0.245327
H	5.90732	1.42003	1.53515
H	5.73617	1.86984	-0.982182
