18
  This energy is -0.8503 and Call times are: 19155
C	0.401233	0.745426	0.75482
C	0.934125	0.61132	-0.493544
C	0.171089	-0.410574	-1.13668
C	-0.760726	-0.810722	-0.224555
O	-0.634746	-0.115292	0.936271
H	0.66561	1.40796	1.5953
H	1.77971	1.17542	-0.918839
H	0.307437	-0.796319	-2.15977
H	-1.55804	-1.57005	-0.278937
C	6.14996	-0.133444	0.972024
C	4.81061	0.188114	0.909852
N	4.38448	0.260072	-0.374574
C	5.45541	-0.0157972	-1.10644
N	6.54527	-0.260298	-0.340923
H	6.82717	-0.276218	1.82908
H	4.14411	0.369484	1.76877
H	5.49715	-0.0522733	-2.20697
H	7.50798	-0.500698	-0.682486
