18
  This energy is -1.4801 and Call times are: 195121
C	0.0434737	-1.11586	0.198416
C	-0.446002	-0.22993	1.1127
C	-0.336052	1.0586	0.506293
C	0.210906	0.846318	-0.725027
O	0.449149	-0.475919	-0.92982
H	0.155535	-2.21208	0.229954
H	-0.844509	-0.460652	2.11373
H	-0.632362	2.02555	0.943668
H	0.475952	1.54295	-1.53725
C	4.87871	0.715033	-0.517141
C	3.7704	1.08829	0.213251
N	3.09437	0.00373922	0.664085
C	3.78068	-1.03837	0.215084
N	4.86536	-0.661849	-0.502745
H	5.65024	1.31188	-1.02906
H	3.44644	2.12071	0.423
H	3.53327	-2.09899	0.382765
H	5.56321	-1.29765	-0.961017
