18
  This energy is -0.8497 and Call times are: 35448
C	-0.516994	0.126555	1.00155
C	0.820726	-0.117766	0.895783
C	1.09132	-0.21327	-0.503423
C	-0.104937	-0.0188784	-1.12917
O	-1.09812	0.190121	-0.225341
H	-1.16624	0.27281	1.88038
H	1.54435	-0.220438	1.72036
H	2.06645	-0.404711	-0.979401
H	-0.377683	-0.00550713	-2.1972
C	4.94848	-0.685401	0.0996595
C	5.23682	0.442597	0.838323
N	6.4183	0.986779	0.458207
C	6.86123	0.19937	-0.512577
N	6.01055	-0.823257	-0.765898
H	4.09126	-1.37672	0.127756
H	4.61353	0.873532	1.63873
H	7.80224	0.325761	-1.07183
H	6.13613	-1.57745	-1.48471
