18
  This energy is -0.8274 and Call times are: 161701
C	0.896023	0.68874	-0.0958149
C	1.02429	-0.646878	0.149228
C	-0.305951	-1.16453	0.20039
C	-1.12968	-0.0995428	-0.0179053
O	-0.412556	1.04033	-0.200792
H	1.64828	1.4856	-0.215701
H	1.96162	-1.21098	0.28076
H	-0.605069	-2.20978	0.379477
H	-2.22832	-0.0229411	-0.0666048
C	6.13215	0.812336	0.570607
C	5.14664	0.00738465	1.10162
N	4.62645	-0.814952	0.158392
C	5.28674	-0.521273	-0.953543
N	6.20548	0.453835	-0.756905
H	6.76535	1.589	1.02819
H	4.80163	0.0052463	2.14843
H	5.1373	-0.989812	-1.93963
H	6.85073	0.859477	-1.47827
