18
  This energy is -1.0096 and Call times are: 139925
C	0.609017	0.918255	-0.268899
C	0.260611	0.623535	1.01645
C	-0.490208	-0.589695	0.949655
C	-0.534336	-0.929262	-0.370618
O	0.131862	-0.0194352	-1.12917
H	1.18672	1.75414	-0.696458
H	0.507558	1.20241	1.92089
H	-0.941143	-1.13851	1.79201
H	-1.00133	-1.78146	-0.891119
C	5.9713	0.662246	0.592971
C	6.25976	-0.39464	-0.244244
N	5.12793	-0.931442	-0.761277
C	4.14107	-0.210316	-0.246771
N	4.59808	0.763064	0.576193
H	6.62427	1.32756	1.17993
H	7.26427	-0.77946	-0.484485
H	3.0654	-0.352213	-0.439205
H	4.01703	1.46148	1.10141
