18
  This energy is -1.0892 and Call times are: 43850
C	-0.612309	0.444787	0.844774
C	-0.395985	1.10708	-0.327807
C	0.406049	0.236027	-1.12663
C	0.609035	-0.88166	-0.371687
O	-0.00578	-0.771373	0.835314
H	-1.17271	0.726956	1.75119
H	-0.764256	2.10854	-0.602656
H	0.783262	0.427853	-2.14399
H	1.16458	-1.81148	-0.576765
C	5.5001	0.928875	-0.179268
C	4.12779	0.940479	-0.0459861
N	3.64533	-0.31061	0.150279
C	4.71428	-1.09537	0.138798
N	5.85687	-0.395461	-0.0566356
H	6.22391	1.74219	-0.347105
H	3.47715	1.82917	-0.0879239
H	4.71707	-2.1896	0.268775
H	6.82926	-0.78704	-0.105443
