18
  This energy is -0.4656 and Call times are: 11975
C	-1.11733	0.09221	-0.171658
C	-0.200004	0.532501	-1.07997
C	1.07958	0.245266	-0.514039
C	0.831231	-0.345195	0.690142
O	-0.505159	-0.446687	0.915469
H	-2.21961	0.10452	-0.181059
H	-0.403955	1.0115	-2.05108
H	2.065	0.457281	-0.959126
H	1.50937	-0.732545	1.46817
C	6.23439	0.600292	0.943964
C	5.5008	0.30892	-0.186565
N	6.23632	-0.399948	-1.07708
C	7.4217	-0.547778	-0.501192
N	7.47089	0.0376473	0.718828
H	5.97275	1.14988	1.86214
H	4.45398	0.597485	-0.375632
H	8.28923	-1.07585	-0.928721
H	8.2941	0.0588877	1.3693
