18
  This energy is -0.8304 and Call times are: 2981
C	0.231984	-1.06457	-0.315071
C	-1.02202	-0.534707	-0.399322
C	-0.913311	0.8056	0.0822141
C	0.397522	0.976459	0.418217
O	1.1115	-0.155579	0.182121
H	0.622966	-2.06234	-0.573621
H	-1.93226	-1.03727	-0.763982
H	-1.72252	1.54884	0.165139
H	0.939757	1.8436	0.829677
C	5.8701	0.529989	-0.882716
C	6.26676	-0.602194	-0.203032
N	5.36901	-0.936305	0.755574
C	4.41903	-0.0148994	0.670906
N	4.67512	0.891622	-0.301835
H	6.33802	1.08541	-1.71103
H	7.18463	-1.18396	-0.387159
H	3.51403	0.0431306	1.29689
H	4.07727	1.71339	-0.563646
