18
  This energy is -0.5791 and Call times are: 122695
C	-0.45677	-0.0180179	1.038
C	-0.876087	-0.848931	0.0409356
C	-0.0733769	-0.5306	-1.0968
C	0.765603	0.466739	-0.694555
O	0.545296	0.792292	0.606403
H	-0.7863	0.0931247	2.08409
H	-1.67092	-1.6097	0.100651
H	-0.122099	-0.995481	-2.0946
H	1.55297	1.02081	-1.23151
C	6.56582	-0.963828	-0.113205
C	6.88981	0.190421	0.567882
N	5.88777	1.0997	0.492783
C	4.94572	0.511777	-0.232138
N	5.30683	-0.733885	-0.621395
H	7.12347	-1.90132	-0.267084
H	7.82865	0.383399	1.11212
H	3.97223	0.948344	-0.507731
H	4.73642	-1.39798	-1.20007
