18
  This energy is -1.0249 and Call times are: 42724
C	0.163279	0.0291057	1.122
C	-1.00422	-0.403077	0.564756
C	-0.82743	-0.292688	-0.848282
C	0.432504	0.197206	-1.02978
O	1.05196	0.399591	0.162834
H	0.481896	0.120057	2.17341
H	-1.90006	-0.763457	1.09551
H	-1.55894	-0.550462	-1.63093
H	0.997114	0.441754	-1.94447
C	4.25012	0.129674	0.803732
C	4.95397	1.13438	0.174201
N	5.86043	0.625252	-0.695075
C	5.71945	-0.690295	-0.605161
N	4.76088	-1.03932	0.28529
H	3.44866	0.162736	1.55878
H	4.82398	2.2175	0.331656
H	6.29252	-1.44409	-1.16874
H	4.46342	-2.0146	0.533461
