18
  This energy is -1.462 and Call times are: 124384
C	-0.364951	0.815719	0.698437
C	-0.0526316	1.05764	-0.607054
C	0.360847	-0.197434	-1.14922
C	0.264698	-1.09552	-0.127173
O	-0.177015	-0.494034	1.00866
H	-0.72692	1.48148	1.49906
H	-0.107876	2.02306	-1.13527
H	0.689929	-0.398598	-2.18137
H	0.478044	-2.17607	-0.080918
C	3.6849	-0.42826	0.603548
C	3.93398	-0.584877	-0.743514
N	5.07965	0.0423791	-1.10474
C	5.53957	0.586061	0.0139655
N	4.73401	0.330734	1.07202
H	2.86274	-0.791102	1.24069
H	3.30754	-1.13924	-1.46123
H	6.46147	1.18119	0.114647
H	4.88069	0.650104	2.06083
