18
  This energy is -1.3156 and Call times are: 56149
C	0.274961	-0.892902	-0.643058
C	-0.0851404	0.309098	-1.17775
C	-0.352735	1.16659	-0.0672514
C	-0.132534	0.412902	1.04802
O	0.251481	-0.847519	0.71503
H	0.566699	-1.84525	-1.11546
H	-0.155294	0.566121	-2.24692
H	-0.671616	2.22066	-0.104215
H	-0.213127	0.653672	2.12077
C	4.26353	-1.07965	0.170139
C	3.68776	0.114752	0.54835
N	4.4658	1.16616	0.19379
C	5.52024	0.626071	-0.402115
N	5.44535	-0.725386	-0.441407
H	3.92712	-2.12188	0.288936
H	2.72489	0.236694	1.07071
H	6.37613	1.17415	-0.827888
H	6.15278	-1.37884	-0.858301
