18
  This energy is -0.7811 and Call times are: 159706
C	-0.146955	0.607532	-0.946419
C	-1.12296	0.478376	-0.00243472
C	-0.568632	-0.347492	1.02264
C	0.69718	-0.650105	0.614576
O	0.971515	-0.0751694	-0.585925
H	-0.124757	1.15053	-1.90554
H	-2.13203	0.920337	-0.0256327
H	-1.06246	-0.673168	1.95224
H	1.49067	-1.25622	1.08175
C	5.76516	-0.20067	-1.15914
C	4.72841	-0.348445	-0.26223
N	5.12088	-0.029727	0.995107
C	6.39626	0.314463	0.878655
N	6.83154	0.227954	-0.400657
H	5.81781	-0.364719	-2.24719
H	3.70424	-0.679325	-0.499825
H	7.05826	0.637898	1.69804
H	7.79736	0.445875	-0.748476
