18
  This energy is -0.7589 and Call times are: 104129
C	0.127968	-1.11967	0.1279
C	-0.793341	-0.582178	-0.722196
C	-0.652565	0.834469	-0.60639
C	0.342343	1.03761	0.30425
O	0.830412	-0.144896	0.763033
H	0.378639	-2.16606	0.367657
H	-1.50108	-1.12849	-1.36621
H	-1.22945	1.60492	-1.14276
H	0.78889	1.96234	0.705139
C	5.51583	-0.480461	-0.801146
C	4.28115	0.0889473	-1.03022
N	3.73168	0.544208	0.121875
C	4.6221	0.258318	1.06211
N	5.71534	-0.359973	0.556008
H	6.24238	-0.947312	-1.48504
H	3.77696	0.179432	-2.00616
H	4.52402	0.479525	2.13713
H	6.55496	-0.685536	1.0948
