18
  This energy is -1.1434 and Call times are: 145299
C	1.05768	0.176116	0.369738
C	-0.0381836	0.602713	1.06074
C	-1.16936	0.199959	0.287216
C	-0.664896	-0.437202	-0.808188
O	0.693518	-0.460991	-0.774157
H	2.13578	0.262788	0.582886
H	-0.0488963	1.14646	2.01903
H	-2.2315	0.36935	0.526521
H	-1.16072	-0.910923	-1.67132
C	4.64177	0.725625	-0.854535
C	4.89149	-0.625717	-0.967049
N	5.28923	-1.14944	0.21787
C	5.28627	-0.126883	1.06226
N	4.90313	1.02574	0.463724
H	4.30771	1.47012	-1.59458
H	4.79179	-1.23219	-1.88198
H	5.55596	-0.166531	2.12994
H	4.82085	1.96842	0.917431
