18
  This energy is -0.9939 and Call times are: 82996
C	-1.10493	-0.243365	-0.0793407
C	-0.168405	-0.83088	-0.87816
C	1.08664	-0.275032	-0.483177
C	0.806259	0.603086	0.522144
O	-0.52736	0.635147	0.781843
H	-2.19946	-0.363433	-0.025912
H	-0.343779	-1.58048	-1.66647
H	2.07782	-0.507978	-0.904353
H	1.45801	1.25643	1.12515
C	4.83331	0.637323	0.21078
C	5.96814	0.572425	0.991232
N	6.88773	-0.261681	0.447979
C	6.32554	-0.712527	-0.665259
N	5.08635	-0.199854	-0.852843
H	3.89488	1.2012	0.332931
H	6.13984	1.11251	1.93657
H	6.77709	-1.41964	-1.37962
H	4.44126	-0.401656	-1.65558
