18
  This energy is -1.1472 and Call times are: 111390
C	-0.879072	-0.119726	0.706611
C	-0.955115	-0.445679	-0.61564
C	0.33243	-0.159227	-1.16363
C	1.08161	0.316485	-0.127867
O	0.357621	0.34741	1.02187
H	-1.62469	-0.173168	1.51683
H	-1.83011	-0.847522	-1.15136
H	0.654198	-0.294815	-2.2087
H	2.12749	0.661613	-0.0801193
C	5.0706	1.16369	0.0425121
C	4.86511	0.317867	1.11186
N	4.70456	-0.962614	0.698211
C	4.81005	-0.911359	-0.622724
N	5.03106	0.348654	-1.06669
H	5.23663	2.25163	-0.00601707
H	4.82982	0.608607	2.17444
H	4.73349	-1.76668	-1.31323
H	5.1497	0.64772	-2.06556
