18
  This energy is -2.6156 and Call times are: 185946
C	-0.340549	1.07958	0.0702851
C	-0.263466	0.413857	-1.11767
C	0.197821	-0.900148	-0.800305
C	0.361902	-0.921401	0.553578
O	0.0377012	0.279287	1.10153
H	-0.645639	2.11098	0.311917
H	-0.507008	0.808513	-2.11719
H	0.383041	-1.72685	-1.50483
H	0.698646	-1.71831	1.2368
C	3.99593	0.936221	-0.645079
C	5.21677	0.295363	-0.640923
N	5.21797	-0.748032	0.223852
C	4.0025	-0.754444	0.754162
N	3.22799	0.24162	0.262654
H	3.63145	1.80832	-1.21088
H	6.09674	0.567163	-1.24641
H	3.6269	-1.46632	1.50675
H	2.23222	0.445854	0.523385
