18
  This energy is -1.1646 and Call times are: 79098
C	-1.11815	0.170397	0.0843034
C	-0.590249	-0.903558	-0.570155
C	0.827591	-0.769901	-0.460689
C	1.04095	0.37393	0.251
O	-0.13631	0.9611	0.592034
H	-2.16177	0.480884	0.256685
H	-1.14375	-1.70907	-1.07896
H	1.59196	-1.45118	-0.867744
H	1.97012	0.870388	0.575693
C	5.72813	1.03411	0.19181
C	4.77595	0.756292	-0.765954
N	4.38431	-0.539591	-0.704144
C	5.09085	-1.06371	0.288192
N	5.91579	-0.155029	0.860335
H	6.26748	1.96288	0.436792
H	4.36453	1.46768	-1.50046
H	5.0432	-2.1077	0.637559
H	6.57312	-0.324135	1.6607
