18
  This energy is -1.1581 and Call times are: 169289
C	0.431357	-0.995033	0.332027
C	0.923	0.198082	0.773772
C	0.131279	1.20518	0.142075
C	-0.774283	0.538591	-0.629926
O	-0.605493	-0.805923	-0.525989
H	0.727971	-2.034	0.550688
H	1.75929	0.353403	1.47419
H	0.231669	2.2966	0.25534
H	-1.57927	0.900904	-1.29021
C	6.20717	0.345476	1.1084
C	5.84056	1.01181	-0.0417009
N	6.22172	0.325751	-1.14648
C	6.82251	-0.762063	-0.683518
N	6.83941	-0.796581	0.670038
H	6.06754	0.594855	2.17229
H	5.30785	1.97531	-0.0941231
H	7.2679	-1.56572	-1.2918
H	7.25496	-1.54982	1.27104
