18
  This energy is -1.5126 and Call times are: 18674
C	-0.972316	0.0711239	-0.579607
C	-0.325948	1.17207	-0.0994993
C	0.841033	0.682519	0.562779
C	0.804774	-0.674367	0.428916
O	-0.295823	-1.06513	-0.266071
H	-1.90837	-0.0354377	-1.15205
H	-0.639485	2.22344	-0.201489
H	1.6122	1.27886	1.07637
H	1.49246	-1.46209	0.777966
C	4.36894	0.197459	-1.07717
C	5.23973	-0.804818	-0.705256
N	5.52816	-0.73575	0.61707
C	4.83893	0.305416	1.06379
N	4.12392	0.901671	0.0805168
H	3.92122	0.450962	-2.05124
H	5.66504	-1.57655	-1.36736
H	4.82172	0.674843	2.1018
H	3.5015	1.74058	0.180921
