18
  This energy is -0.8326 and Call times are: 17589
C	1.03162	0.320172	0.345914
C	0.0653037	1.21886	0.000995323
C	-1.0741	0.443319	-0.373706
C	-0.703484	-0.86083	-0.224683
O	0.579374	-0.954623	0.214055
H	2.06753	0.458964	0.696455
H	0.146704	2.31768	0.00956767
H	-2.05178	0.821274	-0.713415
H	-1.25295	-1.80113	-0.395502
C	5.00966	0.2474	-0.9205
C	4.77668	-0.69461	0.059033
N	5.7813	-0.712693	0.96839
C	6.63427	0.214571	0.554572
N	6.21402	0.821893	-0.580389
H	4.42321	0.539845	-1.80599
H	3.9017	-1.36154	0.125899
H	7.58193	0.489429	1.04511
H	6.71095	1.58501	-1.1019
