18
  This energy is -1.3194 and Call times are: 180627
C	0.557983	0.596612	0.786836
C	0.078428	1.16469	-0.356708
C	-0.55303	0.109049	-1.08266
C	-0.403608	-1.01092	-0.318651
O	0.272573	-0.731532	0.826658
H	1.11172	1.02392	1.63891
H	0.161066	2.22112	-0.658731
H	-1.05733	0.184274	-2.05945
H	-0.728487	-2.05243	-0.476663
C	3.86817	0.917094	0.0919532
C	3.79005	-0.115928	-0.817942
N	4.79875	-1.00288	-0.638013
C	5.49996	-0.521923	0.379635
N	4.97924	0.634274	0.854662
H	3.23292	1.80389	0.24556
H	3.02394	-0.237153	-1.60103
H	6.40339	-0.976426	0.817205
H	5.35105	1.20628	1.65205
