18
  This energy is -0.4943 and Call times are: 73396
C	-1.04419	0.442771	0.00513296
C	-0.821359	-0.902845	0.0112736
C	0.597792	-1.0642	0.00174992
C	1.11691	0.197053	-0.00936929
O	0.128399	1.12972	-0.00747941
H	-1.97759	1.02929	0.00861855
H	-1.58022	-1.70167	0.0214843
H	1.15802	-2.01301	0.00310827
H	2.15811	0.559053	-0.0191349
C	6.00682	0.100102	1.10476
C	5.46466	0.680527	-0.0223235
N	6.17336	0.35258	-1.12989
C	7.15147	-0.428324	-0.691577
N	7.09448	-0.610836	0.648957
H	5.70567	0.141282	2.1636
H	4.57482	1.33005	-0.0561775
H	7.93656	-0.893283	-1.30938
H	7.75332	-1.1846	1.23033
