18
  This energy is -1.637 and Call times are: 75829
C	0.64255	-0.440648	0.824233
C	0.61982	-0.955724	-0.438524
C	-0.293734	-0.142429	-1.17615
C	-0.748617	0.797845	-0.299027
O	-0.187278	0.630691	0.927337
H	1.19949	-0.741692	1.7267
H	1.18925	-1.82153	-0.812996
H	-0.573449	-0.252283	-2.23624
H	-1.4628	1.62842	-0.422894
C	3.94968	0.546059	0.428733
C	5.18819	1.10389	0.191956
N	6.05123	0.184683	-0.304761
C	5.35079	-0.939129	-0.375864
N	4.07786	-0.773069	0.055023
H	3.01728	0.979973	0.823552
H	5.4745	2.15316	0.370632
H	5.72106	-1.91256	-0.735831
H	3.33089	-1.50898	0.096513
