18
  This energy is -1.4076 and Call times are: 155078
C	-0.527008	-0.616589	0.792768
C	-0.0203764	-1.17033	-0.346122
C	0.557127	-0.0910867	-1.08222
C	0.352419	1.02689	-0.32817
O	-0.308266	0.724457	0.820325
H	-1.05819	-1.06329	1.64925
H	-0.050331	-2.23226	-0.638531
H	1.06396	-0.149868	-2.05883
H	0.624777	2.08185	-0.495899
C	4.91887	-0.852254	0.525128
C	4.27875	0.203667	1.13866
N	3.66122	0.995919	0.228984
C	3.91727	0.433627	-0.944426
N	4.67212	-0.683551	-0.81906
H	5.51272	-1.68405	0.936224
H	4.25142	0.408047	2.2214
H	3.57643	0.798511	-1.92673
H	5.00582	-1.30316	-1.59751
