18
  This energy is -3.0501 and Call times are: 197556
C	0.263566	-0.084059	1.09994
C	0.154843	-1.17565	0.289399
C	-0.184896	-0.670843	-1.00283
C	-0.253791	0.68467	-0.867881
O	0.0172607	1.06048	0.409738
H	0.507169	0.00993523	2.17096
H	0.299384	-2.23053	0.573034
H	-0.35614	-1.2565	-1.92032
H	-0.482901	1.48106	-1.59488
C	3.8433	0.197949	1.06646
C	5.16968	-0.0245702	0.762579
N	5.34063	-0.216163	-0.568053
C	4.12492	-0.112896	-1.08768
N	3.18755	0.136461	-0.142834
H	3.33655	0.389321	2.02569
H	6.00637	-0.0503035	1.47961
H	3.86474	-0.211268	-2.15392
H	2.15749	0.259509	-0.301286
