18
  This energy is -0.6809 and Call times are: 106936
C	0.269938	0.734538	-0.820968
C	1.03122	0.579982	0.300166
C	0.37609	-0.419097	1.08296
C	-0.727695	-0.786869	0.371078
O	-0.808244	-0.0923998	-0.794356
H	0.386408	1.39081	-1.69903
H	1.96085	1.11577	0.550786
H	0.696786	-0.811945	2.06118
H	-1.52277	-1.52072	0.582195
C	6.72847	0.23574	0.236825
C	6.11466	0.28226	-0.996961
N	4.80412	-0.049785	-0.903556
C	4.60565	-0.301339	0.383283
N	5.73559	-0.143115	1.11252
H	7.76691	0.438655	0.543411
H	6.59396	0.549463	-1.95285
H	3.65253	-0.605153	0.845349
H	5.83615	-0.282486	2.14776
