18
  This energy is -0.9548 and Call times are: 31503
C	-0.594621	-0.880087	0.397836
C	-0.0362366	-0.878562	-0.846583
C	0.620021	0.383135	-0.979117
C	0.404733	1.04124	0.196012
O	-0.335278	0.284534	1.04854
H	-1.19193	-1.6384	0.930217
H	-0.0818981	-1.68501	-1.59601
H	1.18435	0.749421	-1.85174
H	0.720541	2.03845	0.543986
C	5.22195	-1.07293	0.395727
C	6.3287	-0.325544	0.738758
N	6.333	0.865894	0.0930268
C	5.23311	0.857673	-0.647781
N	4.52916	-0.289607	-0.50017
H	4.88942	-2.07342	0.715094
H	7.12417	-0.624651	1.44061
H	4.89542	1.66574	-1.31653
H	3.62742	-0.535549	-0.977288
