18
  This energy is -1.1019 and Call times are: 153809
C	1.0493	-0.384467	0.193802
C	0.216191	-0.96308	-0.718071
C	-0.995466	-0.207996	-0.675036
C	-0.795823	0.765383	0.259335
O	0.447553	0.672572	0.800089
H	2.08013	-0.627433	0.499742
H	0.433129	-1.83423	-1.35693
H	-1.90475	-0.377297	-1.27389
H	-1.45089	1.57304	0.625153
C	5.29078	0.926166	0.726102
C	6.24595	-0.0661993	0.662787
N	5.93984	-0.978886	-0.291053
C	4.79911	-0.554341	-0.817473
N	4.36671	0.590636	-0.238116
H	5.20606	1.81765	1.36767
H	7.15048	-0.139981	1.28826
H	4.23757	-1.04382	-1.62946
H	3.49385	1.12161	-0.477778
