18
  This energy is -1.0232 and Call times are: 152850
C	-1.12343	-0.126756	0.0908254
C	-0.495748	-0.0182599	-1.11525
C	0.894536	0.125344	-0.820965
C	0.993711	0.091925	0.538969
O	-0.229031	-0.0615009	1.11201
H	-2.1868	-0.25248	0.352912
H	-0.964726	-0.0374289	-2.11214
H	1.71782	0.239654	-1.54431
H	1.86478	0.166012	1.21053
C	5.69205	1.06898	-0.0161662
C	4.82792	0.570093	0.935431
N	4.45537	-0.6989	0.639836
C	5.08599	-0.986168	-0.49084
N	5.84433	0.0474416	-0.926911
H	6.1927	2.04606	-0.106685
H	4.4666	1.10306	1.82999
H	5.02781	-1.93851	-1.04211
H	6.43563	0.0669314	-1.79365
