18
  This energy is -1.0628 and Call times are: 156048
C	-0.821976	0.662808	-0.414057
C	-0.116076	-0.20156	-1.19824
C	0.81433	-0.847902	-0.328356
C	0.594854	-0.321448	0.910615
O	-0.401021	0.602726	0.876757
H	-1.63761	1.36549	-0.651174
H	-0.238296	-0.367373	-2.28068
H	1.55692	-1.61449	-0.602237
H	1.07379	-0.518083	1.88386
C	5.72115	1.03032	0.227896
C	4.36627	0.78958	0.14123
N	4.11829	-0.513581	-0.135873
C	5.31477	-1.07913	-0.220791
N	6.31375	-0.189836	-0.00920535
H	6.28668	1.95281	0.434621
H	3.56324	1.53284	0.273682
H	5.51659	-2.1409	-0.43562
H	7.34353	-0.391417	-0.023123
