18
  This energy is -0.9527 and Call times are: 142834
C	1.05042	0.427786	-0.00321368
C	0.702828	-0.649565	0.757619
C	-0.681348	-0.883864	0.494408
C	-1.05741	0.0709939	-0.404034
O	-0.0123365	0.880678	-0.719064
H	2.00822	0.960498	-0.121962
H	1.35566	-1.22187	1.43613
H	-1.3151	-1.67394	0.928266
H	-2.02556	0.277704	-0.889014
C	4.74607	-0.296183	0.62241
C	4.89601	-0.367414	-0.746381
N	6.12687	0.0540286	-1.12569
C	6.7382	0.38545	0.00348962
N	5.94734	0.192351	1.08554
H	3.89785	-0.550099	1.27783
H	4.1381	-0.71535	-1.46705
H	7.76496	0.774821	0.0951129
H	6.20093	0.37919	2.08656
