18
  This energy is -1.1656 and Call times are: 168186
C	0.841885	-0.312509	0.692797
C	-0.468813	-0.363514	1.06675
C	-1.21488	0.102646	-0.0585027
C	-0.29423	0.397362	-1.02075
O	0.966977	0.149821	-0.579058
H	1.76686	-0.573922	1.23255
H	-0.870022	-0.696044	2.0376
H	-2.30955	0.203408	-0.133569
H	-0.407329	0.784565	-2.04668
C	5.4797	-0.344335	-1.12257
C	6.52246	-0.0239747	-0.27927
N	6.06775	0.33155	0.946842
C	4.74791	0.232125	0.864496
N	4.34401	-0.171923	-0.363183
H	5.4659	-0.671878	-2.17427
H	7.59475	-0.0429983	-0.533572
H	4.02981	0.443221	1.6732
H	3.35429	-0.324737	-0.676798
