18
  This energy is -0.8683 and Call times are: 14973
C	0.633798	-0.585374	0.736233
C	-0.410789	-1.14767	0.0631548
C	-0.952086	-0.110186	-0.755831
C	-0.190494	0.994519	-0.510925
O	0.782726	0.722413	0.397817
H	1.33897	-1.00388	1.47301
H	-0.764649	-2.18862	0.136071
H	-1.80908	-0.186793	-1.44416
H	-0.238485	2.01957	-0.913689
C	4.29911	-0.756345	-0.0378144
C	4.89476	-0.124672	-1.10895
N	5.90579	0.680263	-0.701015
C	5.93723	0.54845	0.618175
N	4.98812	-0.306986	1.06651
H	3.46161	-1.47003	0.0149764
H	4.61312	-0.235308	-2.1688
H	6.63484	1.05528	1.30425
H	4.81089	-0.576557	2.0651
