18
  This energy is -1.614 and Call times are: 208260
C	0.367317	-1.00328	0.380661
C	0.422661	0.129944	1.1377
C	-0.123632	1.16996	0.325265
C	-0.464582	0.580462	-0.856521
O	-0.171738	-0.74656	-0.84021
H	0.675278	-2.04023	0.59315
H	0.809386	0.224053	2.16516
H	-0.244682	2.23076	0.597578
H	-0.916734	0.990593	-1.77445
C	4.03829	0.741667	0.91171
C	3.34968	0.835201	-0.279178
N	3.66215	-0.191839	-1.10626
C	4.54127	-0.919752	-0.431036
N	4.8011	-0.398433	0.791381
H	4.03944	1.3843	1.80645
H	2.63299	1.62535	-0.556429
H	5.02611	-1.84394	-0.784644
H	5.45841	-0.788433	1.51048
