18
  This energy is -0.9548 and Call times are: 100474
C	0.140969	1.07957	-0.317885
C	0.319033	0.668261	0.970327
C	0.0541729	-0.735292	0.972779
C	-0.262362	-1.05777	-0.31415
O	-0.214339	0.0384974	-1.11596
H	0.235252	2.07219	-0.788075
H	0.607913	1.29078	1.83237
H	0.0968674	-1.41736	1.8371
H	-0.536606	-2.01806	-0.780929
C	5.9091	0.374178	-0.647014
C	5.61316	-0.930161	-0.311949
N	4.49118	-0.997657	0.445086
C	4.09258	0.260026	0.579154
N	4.91444	1.12495	-0.0611953
H	6.72974	0.806827	-1.24106
H	6.18912	-1.82374	-0.602881
H	3.20578	0.603592	1.13573
H	4.81322	2.16861	-0.103378
