18
  This energy is -1.2063 and Call times are: 103904
C	-0.559244	0.538862	-0.826604
C	-0.375647	-0.812677	-0.829659
C	0.361802	-1.10977	0.356944
C	0.563748	0.0864527	0.980365
O	0.00795137	1.1041	0.27149
H	-1.06895	1.20905	-1.53815
H	-0.724523	-1.52861	-1.59112
H	0.698378	-2.10184	0.69842
H	1.08013	0.343271	1.91986
C	4.26434	0.131127	1.0854
C	3.97778	-0.882402	0.195581
N	4.6583	-0.720517	-0.965111
C	5.36435	0.389222	-0.795991
N	5.16128	0.940137	0.424192
H	3.90544	0.327388	2.10825
H	3.2922	-1.72756	0.370287
H	6.046	0.843034	-1.53331
H	5.60294	1.81657	0.795745
