18
  This energy is -1.2443 and Call times are: 117691
C	0.237469	-0.797675	0.770534
C	-0.0239944	-1.09726	-0.534173
C	-0.272539	0.152236	-1.18001
C	-0.141016	1.10506	-0.212959
O	0.170305	0.542744	0.984492
H	0.481876	-1.4391	1.63314
H	-0.0402129	-2.09776	-0.995509
H	-0.519778	0.31313	-2.24166
H	-0.242434	2.20218	-0.248979
C	5.46947	-0.246606	0.424857
C	4.39272	0.247811	1.13005
N	3.31575	0.414075	0.324447
C	3.72283	0.0242863	-0.875959
N	5.01417	-0.383096	-0.867528
H	6.49335	-0.502446	0.740702
H	4.37365	0.487538	2.2057
H	3.11617	0.0166936	-1.79581
H	5.56382	-0.735737	-1.68898
