18
  This energy is -0.9446 and Call times are: 130739
C	0.62634	0.601382	-0.729684
C	-0.137999	-0.457549	-1.12316
C	-0.76725	-0.947306	0.0618692
C	-0.331889	-0.144424	1.07489
O	0.519902	0.806836	0.609522
H	1.28237	1.28082	-1.29823
H	-0.247692	-0.854011	-2.14536
H	-1.46183	-1.79899	0.141153
H	-0.551403	-0.146436	2.1552
C	6.05266	0.0432562	-0.233636
C	5.34529	0.883071	0.600318
N	4.03345	0.544962	0.635951
C	3.9274	-0.500632	-0.172821
N	5.11738	-0.841814	-0.721572
H	7.11983	0.0137949	-0.505347
H	5.75799	1.7269	1.17694
H	3.00203	-1.05448	-0.399044
H	5.2939	-1.63033	-1.39116
