18
  This energy is -1.5097 and Call times are: 29678
C	0.640866	0.899593	0.257728
C	0.311279	0.581555	-1.02703
C	-0.491842	-0.596702	-0.944419
C	-0.582134	-0.894666	0.383527
O	0.1037	0.00869963	1.13224
H	1.24313	1.72296	0.675573
H	0.604317	1.12242	-1.94119
H	-0.9453	-1.15102	-1.7818
H	-1.09733	-1.71073	0.916316
C	3.56981	-0.682912	0.231242
C	4.10079	-0.400196	-1.00943
N	5.17272	0.422495	-0.906235
C	5.30623	0.649291	0.39352
N	4.36368	0.00500676	1.12159
H	2.71182	-1.30423	0.533487
H	3.72964	-0.775096	-1.97719
H	6.07689	1.27926	0.866249
H	4.25782	0.0255918	2.16544
