18
  This energy is -1.248 and Call times are: 210966
C	0.928719	0.233792	0.607637
C	0.217802	1.20032	-0.0410524
C	-0.86393	0.524784	-0.684189
C	-0.718552	-0.794918	-0.371737
O	0.371084	-0.99076	0.416521
H	1.83706	0.28784	1.22992
H	0.433507	2.28061	-0.0643291
H	-1.65369	0.977168	-1.30526
H	-1.31533	-1.68081	-0.644311
C	4.88472	0.189698	1.08473
C	6.12176	0.554085	0.596803
N	6.26689	0.177872	-0.696995
C	5.12422	-0.417642	-1.01051
N	4.25807	-0.435931	0.0301779
H	4.42143	0.32675	2.07475
H	6.91217	1.0817	1.15513
H	4.86909	-0.858027	-1.98785
H	3.29302	-0.848157	0.0331509
