18
  This energy is -0.6951 and Call times are: 199790
C	0.74111	0.0143976	0.858457
C	0.0299001	-1.101	0.526118
C	-0.782658	-0.729016	-0.588107
C	-0.49626	0.580852	-0.838294
O	0.432324	1.05101	0.035601
H	1.4879	0.196828	1.64857
H	0.0731379	-2.08681	1.01641
H	-1.49469	-1.36908	-1.13347
H	-0.880067	1.28086	-1.59852
C	5.29456	0.129061	-1.05497
C	4.70549	0.33144	0.175138
N	5.58057	0.090665	1.1815
C	6.70823	-0.259751	0.578008
N	6.58692	-0.251915	-0.770626
H	4.89877	0.225958	-2.07845
H	3.66473	0.646872	0.354537
H	7.65283	-0.532084	1.07581
H	7.33485	-0.490584	-1.46697
