18
  This energy is -1.5771 and Call times are: 85151
C	-0.272343	-0.840678	0.710979
C	-0.896228	-0.668512	-0.489646
C	-0.286017	0.476596	-1.08671
C	0.656893	0.903103	-0.198236
O	0.678987	0.110221	0.905332
H	-0.411828	-1.59106	1.50642
H	-1.70501	-1.28595	-0.912423
H	-0.527609	0.923527	-2.06445
H	1.36646	1.74603	-0.233552
C	4.19476	-0.802367	-0.805064
C	5.24599	0.0867022	-0.880038
N	5.30532	0.867605	0.225938
C	4.29474	0.464519	0.984145
N	3.59487	-0.540483	0.406438
H	3.84285	-1.57704	-1.50476
H	5.96269	0.178685	-1.71234
H	4.02214	0.870986	1.97142
H	2.75524	-1.02742	0.805403
