18
  This energy is -1.1779 and Call times are: 34971
C	-0.552128	0.529488	0.837375
C	-0.969213	-0.665279	0.328509
C	-0.0305247	-1.00411	-0.693341
C	0.877314	0.0135152	-0.718706
O	0.574169	0.958762	0.20953
H	-0.964137	1.1677	1.63624
H	-1.84958	-1.2494	0.641341
H	-0.038384	-1.90317	-1.33031
H	1.7714	0.180282	-1.34165
C	6.4443	0.800928	0.850168
C	7.14998	0.711648	-0.331011
N	6.72093	-0.334005	-1.07869
C	5.75275	-0.8913	-0.364077
N	5.548	-0.243581	0.807301
H	6.51417	1.51018	1.69018
H	7.96103	1.38299	-0.657121
H	5.161	-1.77531	-0.651467
H	4.84115	-0.490099	1.54273
