18
  This energy is -1.8771 and Call times are: 173251
C	0.381299	0.738696	0.771583
C	-0.0197469	-0.522101	1.10314
C	-0.42544	-1.13774	-0.120189
C	-0.236493	-0.198799	-1.09131
O	0.25568	0.953277	-0.564526
H	0.770875	1.56718	1.38566
H	-0.028967	-0.973331	2.10832
H	-0.811749	-2.16119	-0.252074
H	-0.411399	-0.226908	-2.17936
C	4.50198	0.92886	-0.399918
C	3.54764	0.204897	-1.08275
N	3.05756	-0.800903	-0.318085
C	3.70542	-0.70129	0.834734
N	4.58738	0.326197	0.835271
H	5.10623	1.80117	-0.695697
H	3.20392	0.390284	-2.11344
H	3.57262	-1.35475	1.71199
H	5.2164	0.609723	1.62597
