18
  This energy is -0.8486 and Call times are: 204485
C	-0.471718	-0.870609	-0.553104
C	-1.17794	-0.0839055	0.308708
C	-0.2528	0.887806	0.798612
C	0.937096	0.609123	0.192926
O	0.821703	-0.461696	-0.635955
H	-0.770387	-1.74045	-1.16091
H	-2.24347	-0.178392	0.572928
H	-0.458418	1.69652	1.51819
H	1.92567	1.09132	0.266776
C	5.66068	-0.0215447	1.03454
C	5.47617	-1.0806	0.171114
N	4.78486	-0.69854	-0.93008
C	4.54142	0.592627	-0.75049
N	5.04919	1.04793	0.419323
H	6.16697	0.0445387	2.01067
H	5.82948	-2.11353	0.323003
H	3.99569	1.25243	-1.44409
H	4.9886	2.02876	0.787507
