18
  This energy is -0.7174 and Call times are: 192620
C	-0.800008	-0.358214	0.719772
C	-1.06835	-0.0702737	-0.58616
C	0.173493	0.342125	-1.15877
C	1.09108	0.269789	-0.152198
O	0.513933	-0.156129	1.00215
H	-1.44821	-0.710663	1.53884
H	-2.04301	-0.14117	-1.09519
H	0.353115	0.654549	-2.20003
H	2.17078	0.491151	-0.129857
C	6.2817	0.902349	-0.325806
C	6.2861	0.260326	0.894412
N	5.36931	-0.7372	0.925007
C	4.79831	-0.714103	-0.271679
N	5.3138	0.256769	-1.06242
H	6.87891	1.74485	-0.709303
H	6.93438	0.49901	1.75326
H	3.99773	-1.38563	-0.621461
H	5.0302	0.475963	-2.04872
