18
  This energy is -0.6509 and Call times are: 56309
C	-0.600762	0.34411	-0.898373
C	-0.735881	-0.90338	-0.363692
C	0.173304	-0.95778	0.736554
C	0.783752	0.261271	0.777091
O	0.323099	1.0689	-0.214142
H	-1.09765	0.830683	-1.75371
H	-1.40833	-1.70488	-0.709393
H	0.345934	-1.80984	1.41352
H	1.55191	0.672152	1.45264
C	4.8196	0.517789	0.394731
C	5.73795	1.04773	-0.486717
N	6.74813	0.175779	-0.72282
C	6.45758	-0.891038	0.00937276
N	5.30441	-0.734014	0.701558
H	3.88652	0.92916	0.811468
H	5.68972	2.04361	-0.956544
H	7.05489	-1.81466	0.0754876
H	4.86361	-1.43273	1.34867
