18
  This energy is -1.2357 and Call times are: 15550
C	0.0935862	-1.06099	-0.389811
C	1.09813	-0.14652	-0.512383
C	0.610297	1.05326	0.0898363
C	-0.649287	0.766049	0.527253
O	-0.981181	-0.520759	0.242677
H	0.0210687	-2.11429	-0.7069
H	2.08377	-0.301315	-0.979969
H	1.14251	2.01365	0.182008
H	-1.40057	1.38212	1.04809
C	4.89118	-0.974993	0.650109
C	4.23553	0.223132	0.839215
N	4.60026	1.13277	-0.0967551
C	5.47884	0.501362	-0.863596
N	5.68824	-0.772314	-0.45434
H	4.8484	-1.92579	1.20481
H	3.50585	0.447512	1.63424
H	5.99908	0.924708	-1.73788
H	6.33462	-1.4721	-0.894509
