18
  This energy is -1.2971 and Call times are: 63480
C	-0.416607	-1.05469	0.0214466
C	0.755195	-0.719625	0.633804
C	0.940214	0.675084	0.387489
C	-0.13486	1.06918	-0.353644
O	-0.973707	0.025581	-0.586548
H	-0.954089	-2.01426	-0.0534262
H	1.42236	-1.3876	1.20196
H	1.77935	1.30348	0.7267
H	-0.414907	2.05022	-0.77124
C	5.40728	-0.902169	0.726787
C	6.07982	-0.60855	-0.440526
N	5.57725	0.504907	-1.02717
C	4.59666	0.900541	-0.226835
N	4.45447	0.0849693	0.844714
H	5.53502	-1.71656	1.45753
H	6.91868	-1.18018	-0.869948
H	3.95105	1.78062	-0.378112
H	3.75221	0.185465	1.61801
