18
  This energy is -0.8851 and Call times are: 103968
C	0.981375	-0.567257	-0.0390306
C	0.568072	0.101459	1.07559
C	-0.693944	0.679633	0.739209
C	-0.940433	0.31319	-0.55127
O	0.0722903	-0.448597	-1.04227
H	1.88971	-1.15781	-0.242561
H	1.09867	0.179738	2.0381
H	-1.33638	1.29532	1.38906
H	-1.78807	0.527104	-1.22284
C	7.07955	0.92648	0.721387
C	6.16374	-0.101779	0.792962
N	6.3623	-1.00292	-0.199525
C	7.39735	-0.53548	-0.884209
N	7.86559	0.625721	-0.368505
H	7.22275	1.82112	1.348
H	5.36328	-0.209582	1.54296
H	7.85298	-1.00382	-1.7715
H	8.67349	1.1895	-0.730035
