18
  This energy is -1.1293 and Call times are: 54428
C	-0.265073	-0.65003	-0.890841
C	-1.12893	0.271612	-0.376346
C	-0.444671	0.879467	0.720204
C	0.776919	0.275617	0.778994
O	0.903749	-0.661087	-0.197484
H	-0.361716	-1.35044	-1.73662
H	-2.14597	0.500453	-0.733213
H	-0.825701	1.6733	1.38257
H	1.63235	0.420976	1.45896
C	4.25271	1.05222	0.279027
C	4.55805	0.591437	-0.98414
N	5.05682	-0.667758	-0.937604
C	5.06089	-0.98693	0.349539
N	4.58539	0.0169889	1.1239
H	3.83613	2.01156	0.624965
H	4.42739	1.145	-1.92825
H	5.4015	-1.94248	0.779812
H	4.48859	0.00838081	2.1688
