18
  This energy is -1.1954 and Call times are: 193719
C	0.496785	0.839105	-0.579231
C	-0.839075	0.832762	-0.30389
C	-1.08134	-0.368461	0.429929
C	0.127868	-0.990128	0.538234
O	1.10293	-0.266657	-0.0723865
H	1.12834	1.56285	-1.12014
H	-1.57958	1.59728	-0.58894
H	-2.04702	-0.720471	0.826957
H	0.42234	-1.93776	1.01836
C	4.67757	-0.964345	0.674262
C	3.99516	0.213776	0.892178
N	4.25282	1.11579	-0.0858301
C	5.09188	0.499594	-0.907351
N	5.37878	-0.757091	-0.492591
H	4.71267	-1.9042	1.24783
H	3.32151	0.429089	1.73757
H	5.52703	0.922462	-1.82717
H	6.01429	-1.44289	-0.969106
