18
  This energy is -2.0596 and Call times are: 173068
C	0.0211412	1.08235	-0.338329
C	0.25117	0.71687	0.955458
C	0.139876	-0.706802	0.985268
C	-0.148337	-1.08563	-0.292933
O	-0.224585	-0.00578228	-1.1146
H	0.00428685	2.07038	-0.826978
H	0.476606	1.38299	1.80373
H	0.261865	-1.36398	1.86125
H	-0.320046	-2.0785	-0.740104
C	4.18353	-0.720867	0.912008
C	4.54536	-0.938398	-0.400587
N	4.17828	0.102059	-1.18749
C	3.59095	0.961791	-0.366185
N	3.56913	0.511484	0.910662
H	4.31539	-1.33532	1.81677
H	5.06471	-1.82745	-0.793921
H	3.15932	1.93593	-0.647216
H	3.16178	1.00676	1.74134
