18
  This energy is -0.924 and Call times are: 137779
C	0.285756	-0.572251	-0.936629
C	1.0831	-0.536734	0.169427
C	0.39259	0.271494	1.12341
C	-0.765753	0.658526	0.516106
O	-0.847516	0.152333	-0.742502
H	0.410353	-1.07059	-1.91202
H	2.05955	-1.03018	0.30038
H	0.72722	0.529289	2.14108
H	-1.60193	1.28476	0.868088
C	5.8003	0.817657	0.791422
C	4.60407	0.723325	0.112241
N	4.59972	-0.343106	-0.723951
C	5.78873	-0.90821	-0.564128
N	6.54943	-0.245542	0.339091
H	6.15952	1.54198	1.53966
H	3.74407	1.40565	0.210594
H	6.15399	-1.80878	-1.08355
H	7.52416	-0.494284	0.637879
