18
  This energy is -0.854 and Call times are: 41933
C	-0.983263	-0.403742	-0.395711
C	0.2092	-1.02093	-0.635479
C	1.19965	-0.224619	0.0164558
C	0.525005	0.808881	0.597061
O	-0.809131	0.715341	0.355517
H	-2.012	-0.657432	-0.700016
H	0.374741	-1.94431	-1.21345
H	2.28581	-0.407842	0.0444523
H	0.874387	1.66317	1.19986
C	5.72674	-1.01795	-0.545392
C	4.89924	-0.00806346	-0.98869
N	4.87071	1.02202	-0.108567
C	5.67745	0.652578	0.876987
N	6.21809	-0.569876	0.660424
H	5.99189	-1.9913	-0.98791
H	4.32228	-0.00424582	-1.92781
H	5.90787	1.239	1.781
H	6.88458	-1.07929	1.29094
