18
  This energy is -0.7249 and Call times are: 172459
C	1.05642	-0.388806	0.138555
C	0.457567	0.437326	1.04368
C	-0.846769	0.704151	0.526349
C	-0.929829	0.0175173	-0.64924
O	0.223526	-0.655573	-0.901698
H	2.05769	-0.849647	0.119928
H	0.890859	0.820395	1.98156
H	-1.62585	1.33523	0.98337
H	-1.74342	-0.0720632	-1.38768
C	5.98235	-0.659937	0.967334
C	7.16177	-0.290123	0.356308
N	6.92647	0.472677	-0.73881
C	5.6061	0.575691	-0.806906
N	4.99154	-0.0899435	0.199488
H	5.78459	-1.2681	1.86431
H	8.17827	-0.560041	0.686026
H	5.03712	1.12658	-1.57307
H	3.95732	-0.158718	0.363582
