18
  This energy is -1.4008 and Call times are: 131055
C	-0.797063	0.336254	0.733502
C	-0.519391	-0.98018	0.509282
C	0.526024	-0.999043	-0.46379
C	0.794905	0.30753	-0.748299
O	-0.0038094	1.13671	-0.026127
H	-1.52596	0.826568	1.3995
H	-1.0023	-1.85064	0.981722
H	1.01482	-1.88703	-0.895813
H	1.5206	0.771599	-1.43623
C	4.20546	-0.526697	-1.01041
C	3.92605	-0.968836	0.265356
N	4.41469	-0.114201	1.19666
C	4.99505	0.854446	0.501297
N	4.89592	0.651557	-0.833843
H	3.9697	-0.952921	-1.99848
H	3.38062	-1.88919	0.530509
H	5.50724	1.73589	0.919578
H	5.27316	1.27335	-1.59037
