18
  This energy is -0.769 and Call times are: 146443
C	-0.680503	0.898586	0.125937
C	0.630414	1.01941	-0.230817
C	1.14495	-0.311888	-0.285857
C	0.10303	-1.12872	0.0421219
O	-1.01962	-0.406342	0.296736
H	-1.4665	1.65419	0.288799
H	1.17995	1.95242	-0.434757
H	2.17273	-0.616304	-0.540956
H	0.0329489	-2.22549	0.128401
C	5.01542	0.419894	0.180166
C	5.35376	-0.859684	-0.206288
N	6.69724	-0.99682	-0.319341
C	7.19047	0.193156	-0.00422053
N	6.21651	1.08175	0.304647
H	4.03754	0.890631	0.369103
H	4.65256	-1.68639	-0.405562
H	8.25727	0.468373	0.0164513
H	6.35077	2.08394	0.585447
