18
  This energy is -1.6631 and Call times are: 166184
C	-0.437697	0.839721	-0.624253
C	0.752487	0.96057	0.0309036
C	0.961282	-0.286309	0.695595
C	-0.119742	-1.05904	0.387944
O	-0.984252	-0.387242	-0.417242
H	-0.996147	1.54461	-1.26184
H	1.41675	1.83958	0.0447213
H	1.81962	-0.566266	1.32724
H	-0.387675	-2.08906	0.675211
C	4.53086	-1.07715	-0.473179
C	4.90686	-0.723955	0.805505
N	4.74004	0.604582	1.01449
C	4.26238	1.0738	-0.130198
N	4.11836	0.0988757	-1.05884
H	4.52775	-2.0497	-0.990552
H	5.29551	-1.40394	1.58102
H	4.00096	2.12299	-0.342509
H	3.76062	0.216454	-2.03836
