18
  This energy is -1.1644 and Call times are: 201423
C	0.831832	-0.702296	-0.318177
C	-0.464918	-1.10979	-0.205203
C	-1.20147	0.0408952	0.211363
C	-0.289803	1.04998	0.316173
O	0.957042	0.613887	-0.00353787
H	1.74602	-1.24512	-0.609467
H	-0.862861	-2.1194	-0.396064
H	-2.28404	0.10084	0.407698
H	-0.400458	2.10822	0.604493
C	4.52655	0.310314	-0.584118
C	4.59515	-0.222686	0.685666
N	5.87935	-0.461627	1.04657
C	6.60467	-0.0783174	0.00465157
N	5.83521	0.394607	-1.00424
H	3.66773	0.625095	-1.19802
H	3.74103	-0.439112	1.34785
H	7.70301	-0.122178	-0.0724691
H	6.17146	0.756532	-1.93009
