18
  This energy is -0.7481 and Call times are: 84535
C	0.685272	0.84291	-0.326047
C	-0.570668	0.684674	-0.833935
C	-1.11139	-0.468539	-0.187533
C	-0.138147	-0.913212	0.6583
O	0.966039	-0.12413	0.58665
H	1.467	1.59309	-0.529472
H	-1.06658	1.31664	-1.58811
H	-2.10991	-0.908478	-0.340885
H	-0.108783	-1.76761	1.35428
C	4.55295	0.609359	-0.675046
C	5.12184	-0.612689	-0.965065
N	5.93523	-1.02341	0.0380377
C	5.87119	-0.0598212	0.946898
N	5.05077	0.946969	0.563655
H	3.85245	1.24156	-1.24352
H	4.95995	-1.20539	-1.88013
H	6.40476	-0.0408488	1.91083
H	4.83501	1.81866	1.10667
