18
  This energy is -1.4284 and Call times are: 142492
C	1.00325	0.500751	0.170709
C	0.861532	-0.59892	-0.623656
C	-0.527456	-0.930009	-0.588865
C	-1.11191	-0.00343521	0.223688
O	-0.191867	0.878094	0.696374
H	1.88902	1.09972	0.438844
H	1.65547	-1.12424	-1.17846
H	-1.02458	-1.76307	-1.11133
H	-2.15878	0.134852	0.540232
C	5.13511	-0.511389	1.03358
C	5.46394	0.771986	0.65153
N	5.03861	1.03071	-0.608892
C	4.44816	-0.0879078	-1.00725
N	4.48018	-1.04765	-0.0525455
H	5.31483	-1.06263	1.97026
H	6.00047	1.51588	1.26276
H	3.97592	-0.258303	-1.98817
H	4.08196	-2.0158	-0.125768
