18
  This energy is -1.0191 and Call times are: 180372
C	-0.210607	0.167914	1.10175
C	-0.916945	0.796839	0.11894
C	-0.366252	0.334627	-1.11525
C	0.627993	-0.535947	-0.77768
O	0.736965	-0.649823	0.572198
H	-0.284345	0.216678	2.20058
H	-1.74291	1.51428	0.249938
H	-0.68035	0.622444	-2.13141
H	1.32049	-1.13031	-1.39609
C	4.6273	-1.07759	-0.0210285
C	5.38209	-0.524702	0.991764
N	5.76512	0.737846	0.682293
C	5.24991	0.967334	-0.517923
N	4.55494	-0.0968614	-0.984939
H	4.15237	-2.06655	-0.12072
H	5.65715	-1.01417	1.94024
H	5.35095	1.89739	-1.10017
H	4.05606	-0.162382	-1.90585
