18
  This energy is -0.8956 and Call times are: 206666
C	0.53532	0.999253	-0.0364351
C	1.1175	-0.123037	0.475327
C	0.144806	-1.16112	0.347438
C	-0.945912	-0.581553	-0.231186
O	-0.724969	0.737518	-0.472531
H	0.907683	2.03106	-0.145832
H	2.13031	-0.211049	0.900259
H	0.2535	-2.21403	0.653498
H	-1.92696	-0.994137	-0.518528
C	5.3419	-0.422155	-0.879649
C	6.7022	-0.576901	-0.715953
N	7.13226	0.0415345	0.410588
C	6.04291	0.5779	0.943738
N	4.93755	0.326373	0.203123
H	4.65588	-0.779796	-1.66387
H	7.38103	-1.1237	-1.39052
H	5.99815	1.16477	1.8753
H	3.95897	0.641522	0.413625
