18
  This energy is -0.883 and Call times are: 73589
C	-1.01608	-0.484327	-0.139286
C	-0.0887258	-0.970698	0.734684
C	1.04212	-0.104862	0.626804
C	0.705974	0.834175	-0.303567
O	-0.547552	0.617715	-0.781929
H	-2.03268	-0.827372	-0.392489
H	-0.190759	-1.85089	1.38963
H	1.9912	-0.180261	1.18148
H	1.26284	1.69586	-0.706875
C	6.7242	-0.316409	0.145456
C	5.82873	-0.838166	-0.763965
N	4.61783	-0.239343	-0.656033
C	4.76155	0.650525	0.316646
N	6.01369	0.642718	0.832073
H	7.7815	-0.551908	0.345925
H	6.03469	-1.63597	-1.49605
H	3.9822	1.33352	0.691305
H	6.37452	1.25134	1.60708
