18
  This energy is -1.6065 and Call times are: 211126
C	-1.04163	-0.186835	0.40805
C	-0.525858	1.06817	0.269037
C	0.786504	0.894356	-0.267259
C	0.956847	-0.451516	-0.408628
O	-0.149694	-1.12712	-0.00102145
H	-2.01748	-0.53908	0.780724
H	-1.01999	2.02075	0.51907
H	1.51221	1.68538	-0.515711
H	1.80702	-1.0456	-0.782159
C	4.15388	0.507009	1.00411
C	4.46319	1.14226	-0.179921
N	4.82479	0.249668	-1.13336
C	4.74013	-0.934815	-0.543055
N	4.33966	-0.832874	0.746447
H	3.82567	0.900481	1.9793
H	4.43192	2.22865	-0.363316
H	4.95994	-1.90892	-1.00893
H	4.19771	-1.62382	1.42136
