18
  This energy is -1.0075 and Call times are: 152690
C	0.079303	0.353013	1.07494
C	-0.873396	-0.533056	0.665522
C	-0.651774	-0.727447	-0.732052
C	0.41679	0.0569917	-1.0533
O	0.875935	0.723931	0.0382091
H	0.29284	0.792159	2.06327
H	-1.65392	-1.00266	1.28549
H	-1.2263	-1.37774	-1.41112
H	0.938692	0.225662	-2.00955
C	4.34728	0.576054	0.381554
C	5.66243	0.862294	0.680861
N	6.50314	-0.00663023	0.0687394
C	5.71255	-0.8288	-0.607738
N	4.40366	-0.519015	-0.451412
H	3.40662	1.05805	0.692006
H	6.01975	1.68022	1.32752
H	6.0397	-1.6746	-1.2337
H	3.58733	-1.01796	-0.882589
