18
  This energy is -1.859 and Call times are: 104417
C	-0.441195	0.190825	1.02729
C	-0.47674	-1.03663	0.433601
C	0.16854	-0.878236	-0.830773
C	0.541444	0.432024	-0.898106
O	0.177006	1.09974	0.228103
H	-0.815811	0.542307	2.00268
H	-0.913544	-1.96087	0.844781
H	0.33152	-1.65526	-1.59482
H	1.06467	1.00389	-1.68197
C	4.05525	-0.857284	0.309049
C	5.43188	-0.89211	0.378617
N	5.97284	0.270596	-0.0595459
C	4.93576	1.02387	-0.399645
N	3.75736	0.388642	-0.19604
H	3.29197	-1.60598	0.574375
H	6.04446	-1.73536	0.737118
H	4.98264	2.04821	-0.803079
H	2.79932	0.772175	-0.386629
