18
  This energy is -1.7162 and Call times are: 180723
C	0.980003	0.0634745	0.567421
C	0.623924	0.977899	-0.379896
C	-0.656266	0.564976	-0.860235
C	-0.969482	-0.565327	-0.164043
O	0.0185746	-0.886103	0.712232
H	1.87843	-0.0212432	1.20059
H	1.20452	1.85519	-0.707561
H	-1.2656	1.05846	-1.63437
H	-1.85231	-1.22459	-0.199218
C	4.87645	-1.10211	-0.412185
C	5.83187	-0.547423	0.41283
N	5.54491	0.747445	0.691185
C	4.41577	0.995119	0.0413258
N	3.97239	-0.0884857	-0.638975
H	4.77916	-2.11271	-0.839694
H	6.72311	-1.05834	0.81221
H	3.87085	1.9528	0.0294558
H	3.10518	-0.145601	-1.22713
