18
  This energy is -0.7505 and Call times are: 113689
C	1.0984	-0.177616	-0.219948
C	0.501198	1.03326	-0.413587
C	-0.863919	0.861762	-0.0299719
C	-0.980414	-0.438781	0.364225
O	0.208318	-1.08835	0.254745
H	2.13556	-0.515194	-0.379887
H	0.9745	1.95479	-0.788913
H	-1.65948	1.62388	-0.0487299
H	-1.84267	-1.01499	0.738049
C	6.1546	-0.595379	0.907719
C	5.17095	-1.02795	0.0437355
N	4.88854	-0.0842843	-0.88699
C	5.69392	0.929852	-0.601489
N	6.47707	0.670568	0.472311
H	6.63202	-1.08258	1.77273
H	4.65998	-2.00404	0.0752726
H	5.7512	1.88595	-1.1463
H	7.19342	1.31174	0.893016
