18
  This energy is -1.4317 and Call times are: 198018
C	0.814688	0.00415496	0.789092
C	1.07088	-0.262034	-0.523875
C	-0.18774	-0.174292	-1.19343
C	-1.10195	0.137769	-0.230505
O	-0.507204	0.250591	0.986279
H	1.47739	0.0483114	1.66894
H	2.04813	-0.496639	-0.975575
H	-0.380364	-0.327343	-2.26747
H	-2.19049	0.304009	-0.282268
C	5.01283	-1.09455	-0.376517
C	4.47852	-0.727282	0.840353
N	4.37091	0.619926	0.940156
C	4.83669	1.08666	-0.210424
N	5.2362	0.0922638	-1.03817
H	5.24227	-2.08348	-0.804198
H	4.16874	-1.41025	1.64809
H	4.90771	2.14779	-0.498842
H	5.63931	0.204062	-2.00059
