18
  This energy is -1.944 and Call times are: 196659
C	0.632209	0.240486	0.910428
C	0.568914	-1.01256	0.37542
C	-0.315529	-0.916387	-0.742
C	-0.714628	0.386945	-0.79119
O	-0.145523	1.10783	0.210534
H	1.18643	0.638647	1.7762
H	1.09252	-1.91415	0.731893
H	-0.614011	-1.72858	-1.42416
H	-1.39103	0.918927	-1.4802
C	5.09212	-0.637796	0.944975
C	5.88961	0.269583	0.280285
N	5.23146	0.823408	-0.766917
C	4.03024	0.261742	-0.75194
N	3.89681	-0.626495	0.261382
H	5.2842	-1.26968	1.82666
H	6.92809	0.534558	0.537569
H	3.21046	0.464604	-1.45978
H	3.04508	-1.19772	0.483898
