18
  This energy is -1.1563 and Call times are: 93680
C	0.142613	0.864167	0.72061
C	0.477864	-0.41818	1.04243
C	0.155314	-1.20618	-0.104363
C	-0.348568	-0.335809	-1.02574
O	-0.363647	0.932903	-0.538751
H	0.214352	1.80401	1.29227
H	0.909042	-0.773544	1.99211
H	0.286685	-2.29399	-0.220615
H	-0.725626	-0.492388	-2.04973
C	4.05294	-0.526478	0.624824
C	4.13343	0.81183	0.302957
N	5.24396	1.0725	-0.428683
C	5.8501	-0.0996449	-0.560206
N	5.17128	-1.0953	0.0574219
H	3.30396	-1.09536	1.19836
H	3.41009	1.59399	0.585544
H	6.79338	-0.285294	-1.09872
H	5.44478	-2.10768	0.0965901
