18
  This energy is -0.9285 and Call times are: 47204
C	0.481419	-0.26406	-0.992426
C	-0.615888	-0.919044	-0.515681
C	-0.920084	-0.309766	0.739851
C	0.0181877	0.663755	0.91951
O	0.882139	0.70573	-0.128745
H	1.06337	-0.391669	-1.91995
H	-1.15683	-1.74808	-0.999603
H	-1.74378	-0.572477	1.42294
H	0.176883	1.3839	1.73894
C	5.17678	1.15141	-0.210149
C	4.30464	0.338721	0.482705
N	4.7609	-0.936318	0.53385
C	5.91171	-0.91471	-0.12477
N	6.20659	0.321224	-0.592854
H	5.13874	2.22593	-0.449952
H	3.35435	0.649539	0.946605
H	6.57852	-1.77551	-0.293938
H	7.05757	0.594915	-1.14257
