18
  This energy is -1.0918 and Call times are: 154226
C	-0.0205195	-1.12772	0.119261
C	-0.0591021	-0.279517	1.1867
C	-0.016091	1.0393	0.639908
C	0.0449778	0.880586	-0.713404
O	0.0431846	-0.436359	-1.04906
H	-0.0323133	-2.22841	0.0592696
H	-0.112493	-0.554917	2.25225
H	-0.0295035	1.98973	1.19722
H	0.0930298	1.6149	-1.53421
C	4.37826	0.728581	0.683885
C	3.8802	-0.169439	-0.236246
N	4.8811	-0.848282	-0.847703
C	5.99585	-0.373206	-0.308952
N	5.74572	0.579774	0.619948
H	3.8732	1.4393	1.35719
H	2.81658	-0.339692	-0.469868
H	7.02205	-0.687941	-0.558121
H	6.45781	1.10518	1.18398
