18
  This energy is -0.7609 and Call times are: 175494
C	-0.823319	-0.530528	-0.571915
C	-0.319248	0.673934	-0.966324
C	0.684129	1.01084	-0.00723931
C	0.704634	-0.0174803	0.888587
O	-0.209558	-0.9676	0.559136
H	-1.60934	-1.17112	-1.00442
H	-0.623475	1.26578	-1.84454
H	1.31253	1.91584	0.00600906
H	1.31471	-0.189294	1.79055
C	6.69938	0.351762	-0.229623
C	6.09654	-0.812108	-0.657576
N	4.8214	-0.896344	-0.206559
C	4.63388	0.211057	0.498511
N	5.73685	0.996404	0.514803
H	7.71144	0.753491	-0.396573
H	6.55885	-1.59256	-1.28369
H	3.70824	0.496693	1.02372
H	5.83928	1.92034	1.00174
