18
  This energy is -1.0514 and Call times are: 73717
C	0.327714	0.713148	-0.818794
C	0.804871	0.796167	0.456276
C	0.166895	-0.255863	1.18177
C	-0.643802	-0.888893	0.285987
O	-0.558104	-0.310307	-0.940759
H	0.537262	1.31478	-1.71845
H	1.53305	1.52511	0.846769
H	0.302081	-0.504772	2.2466
H	-1.32194	-1.75106	0.395777
C	5.5944	-0.765852	-0.872223
C	6.48427	-0.388009	0.110893
N	5.92652	0.514328	0.954233
C	4.69533	0.695581	0.496045
N	4.44659	-0.054026	-0.603866
H	5.69341	-1.4675	-1.71568
H	7.51875	-0.750317	0.226796
H	3.93458	1.36563	0.927929
H	3.55015	-0.0867344	-1.14847
