18
  This energy is -1.7352 and Call times are: 106133
C	-0.103254	0.888215	0.69772
C	0.630024	0.943142	-0.451044
C	0.519992	-0.350084	-1.04735
C	-0.270812	-1.08112	-0.210337
O	-0.660477	-0.340605	0.860556
H	-0.303974	1.64493	1.47383
H	1.19203	1.80762	-0.83954
H	0.979724	-0.687654	-1.9901
H	-0.624632	-2.1238	-0.263922
C	3.43815	-0.0323895	0.800784
C	4.20106	1.06124	0.449958
N	5.1039	0.740069	-0.508291
C	4.90185	-0.547908	-0.751014
N	3.90788	-1.05955	0.0130765
H	2.62145	-0.148525	1.53089
H	4.11623	2.07627	0.871101
H	5.45354	-1.16529	-1.47814
H	3.56112	-2.04999	0.00666293
