18
  This energy is -1.0559 and Call times are: 43103
C	1.12285	0.0824982	0.137147
C	0.512018	-1.09039	-0.196909
C	-0.883367	-0.795843	-0.276016
C	-1.00206	0.531038	0.0166819
O	0.213273	1.0833	0.27161
H	2.18315	0.332353	0.306204
H	0.995556	-2.0652	-0.37023
H	-1.69683	-1.49687	-0.522865
H	-1.8833	1.19073	0.0756699
C	5.55231	0.229484	1.062
C	5.54882	1.06577	-0.0342482
N	4.94266	0.478785	-1.09468
C	4.57151	-0.717103	-0.65796
N	4.9164	-0.915355	0.636388
H	5.94909	0.363551	2.08089
H	5.97283	2.08217	-0.0790191
H	4.04415	-1.48682	-1.24419
H	4.73411	-1.777	1.20699
