18
  This energy is -0.861 and Call times are: 71391
C	0.537869	0.589484	-0.805982
C	1.20348	-0.0516872	0.197134
C	0.197756	-0.671434	0.999978
C	-0.993649	-0.354273	0.416596
O	-0.804755	0.415303	-0.687525
H	0.899711	1.19499	-1.65315
H	2.29335	-0.0848911	0.355805
H	0.352817	-1.28069	1.90489
H	-2.03117	-0.611086	0.68651
C	5.6436	-0.783499	-0.87711
C	6.38381	0.374295	-0.764217
N	6.07845	1.04026	0.375854
C	5.15233	0.298432	0.967977
N	4.85576	-0.811926	0.251915
H	5.62243	-1.5632	-1.65503
H	7.13273	0.741035	-1.48496
H	4.65777	0.521795	1.92701
H	4.15852	-1.55323	0.508003
