18
  This energy is -1.3592 and Call times are: 122023
C	-0.068328	0.150104	1.12214
C	0.423296	1.10867	0.285583
C	0.348237	0.555965	-1.02933
C	-0.182629	-0.691561	-0.880222
O	-0.443106	-0.956033	0.427149
H	-0.202126	0.133277	2.21625
H	0.800915	2.10501	0.566293
H	0.65609	1.03857	-1.97082
H	-0.420865	-1.47742	-1.61569
C	5.4901	0.711876	-0.504052
C	5.62147	0.0490424	0.697837
N	4.51678	-0.685792	0.973879
C	3.70319	-0.479614	-0.0528567
N	4.24442	0.355944	-0.970735
H	6.17215	1.38908	-1.04233
H	6.49354	0.0878711	1.37076
H	2.69965	-0.915718	-0.183015
H	3.79984	0.67235	-1.86711
