18
  This energy is -2.0503 and Call times are: 75030
C	-0.293758	0.483395	-0.983075
C	-0.376215	-0.862457	-0.777508
C	0.0741229	-1.082	0.56007
C	0.39202	0.149079	1.0538
O	0.173497	1.11674	0.124879
H	-0.534224	1.10494	-1.86121
H	-0.719705	-1.62421	-1.49574
H	0.149219	-2.0478	1.08511
H	0.778155	0.465154	2.03678
C	3.87486	-1.17082	0.0931504
C	3.91769	-0.428675	-1.06811
N	3.80289	0.895944	-0.805976
C	3.68928	0.975258	0.512897
N	3.72703	-0.243986	1.10078
H	3.93705	-2.25668	0.267975
H	4.02936	-0.825278	-2.09041
H	3.57599	1.90104	1.09968
H	3.65703	-0.444971	2.12838
