18
  This energy is -0.8464 and Call times are: 121927
C	1.12485	-0.0496844	0.136544
C	0.281034	-0.969777	0.685887
C	-1.03521	-0.574637	0.29668
C	-0.879538	0.552037	-0.456144
O	0.433139	0.886987	-0.564307
H	2.2224	0.0477757	0.170419
H	0.557728	-1.83949	1.30325
H	-1.98196	-1.07707	0.55228
H	-1.61342	1.1993	-0.963813
C	5.31372	1.0279	0.303384
C	6.45463	0.46371	0.833612
N	6.72715	-0.728349	0.249453
C	5.75897	-0.903015	-0.639791
N	4.88174	0.128495	-0.645643
H	4.79591	1.97421	0.526786
H	7.08604	0.89543	1.6272
H	5.64455	-1.76814	-1.31262
H	4.03403	0.224767	-1.2567
