18
  This energy is -1.05 and Call times are: 153649
C	0.5782	-0.774745	0.593175
C	-0.196587	-1.10507	-0.479657
C	-0.753117	0.12236	-0.952749
C	-0.269289	1.09439	-0.127255
O	0.545434	0.564387	0.822658
H	1.19435	-1.39174	1.26766
H	-0.359827	-2.11205	-0.896101
H	-1.43365	0.256257	-1.80893
H	-0.427493	2.18524	-0.111031
C	5.82229	-0.339912	0.100049
C	5.10321	0.416254	1.00132
N	3.83606	0.620524	0.566458
C	3.76928	-0.00653414	-0.600145
N	4.94142	-0.601313	-0.925586
H	6.86378	-0.698542	0.115441
H	5.47602	0.818089	1.95755
H	2.88648	-0.0617486	-1.25729
H	5.14114	-1.15592	-1.79379
