18
  This energy is -1.2431 and Call times are: 2228
C	-0.488853	0.463796	0.912314
C	-0.329916	1.14658	-0.257696
C	0.315257	0.241048	-1.1543
C	0.493621	-0.915149	-0.453034
O	0.00841868	-0.79694	0.810934
H	-0.934167	0.759215	1.87651
H	-0.636269	2.18384	-0.468249
H	0.608588	0.436628	-2.19823
H	0.946003	-1.87968	-0.736366
C	5.4989	-0.757843	-0.415368
C	4.17421	-0.665709	-0.786677
N	3.54322	0.32114	-0.105144
C	4.47292	0.839252	0.685961
N	5.66929	0.222967	0.536034
H	6.30548	-1.42955	-0.749684
H	3.66246	-1.29362	-1.53413
H	4.33153	1.67112	1.39465
H	6.55745	0.449197	1.04716
