18
  This energy is -0.9027 and Call times are: 161284
C	-0.0785807	-0.242758	1.10512
C	-0.565281	-1.07292	0.138516
C	-0.281256	-0.432529	-1.10621
C	0.353934	0.732436	-0.790359
O	0.486183	0.864609	0.555766
H	-0.0720762	-0.325314	2.20439
H	-1.07334	-2.0393	0.287123
H	-0.525313	-0.803669	-2.11457
H	0.755631	1.54092	-1.423
C	4.59025	-0.602013	-0.989282
C	4.04248	0.61017	-0.626369
N	4.50676	1.01431	0.58095
C	5.3394	0.0564927	0.965562
N	5.42414	-0.940328	0.0530066
H	4.45033	-1.22699	-1.88559
H	3.32058	1.20038	-1.21405
H	5.91314	0.0348327	1.90609
H	6.01289	-1.80598	0.125629
