18
  This energy is -2.0779 and Call times are: 161765
C	0.211167	0.889522	0.671238
C	-0.480566	-0.203699	1.10338
C	-0.539928	-1.09464	-0.0114358
C	0.12077	-0.46721	-1.02642
O	0.58609	0.745661	-0.627126
H	0.498507	1.82238	1.18355
H	-0.906309	-0.366393	2.10656
H	-1.02085	-2.08546	-0.0444714
H	0.325514	-0.774008	-2.06526
C	4.53555	0.0387714	1.16843
C	5.50877	0.250754	0.214993
N	5.00226	0.128011	-1.03596
C	3.71968	-0.159026	-0.85926
N	3.38913	-0.224004	0.452268
H	4.57628	0.05575	2.26915
H	6.56735	0.490065	0.40732
H	2.97787	-0.331427	-1.65564
H	2.44032	-0.43446	0.848154
