18
  This energy is -1.2092 and Call times are: 72124
C	0.25009	-1.02412	-0.418366
C	-1.03447	-0.603248	-0.236322
C	-0.940976	0.717411	0.299623
C	0.392466	0.986988	0.397776
O	1.13454	-0.0655657	-0.0363552
H	0.661327	-1.97043	-0.806485
H	-1.95547	-1.16631	-0.45728
H	-1.77507	1.3819	0.576822
H	0.933793	1.87825	0.755371
C	4.73165	0.244558	1.1024
C	4.73409	-0.992078	0.492593
N	4.28797	-0.908106	-0.784292
C	4.00982	0.375742	-0.965934
N	4.26047	1.11212	0.142447
H	5.02217	0.558151	2.11769
H	5.04976	-1.94339	0.951084
H	3.62016	0.830465	-1.89093
H	4.12223	2.14681	0.250035
