18
  This energy is -0.7827 and Call times are: 180500
C	-0.142851	-1.0884	-0.285255
C	0.849004	-0.317991	-0.81729
C	0.70474	0.971821	-0.220892
C	-0.362536	0.875732	0.622945
O	-0.892345	-0.375508	0.596249
H	-0.417095	-2.14337	-0.449863
H	1.60626	-0.626978	-1.55565
H	1.32791	1.86171	-0.404908
H	-0.83751	1.61542	1.28817
C	4.66134	-0.542031	-0.111697
C	5.07495	0.244927	0.942233
N	6.33167	0.710319	0.740787
C	6.6963	0.213965	-0.433648
N	5.72369	-0.547949	-0.987808
H	3.71767	-1.08031	-0.294168
H	4.48909	0.485242	1.84438
H	7.66425	0.376887	-0.934411
H	5.77003	-1.04793	-1.90929
