18
  This energy is -1.9123 and Call times are: 208228
C	-0.510664	-0.394181	-0.932869
C	-0.855823	-0.809502	0.319627
C	-0.0019222	-0.0979653	1.21667
C	0.789663	0.689353	0.433156
O	0.49262	0.521176	-0.882326
H	-0.897921	-0.670407	-1.92735
H	-1.6337	-1.54331	0.585194
H	0.013892	-0.170403	2.31603
H	1.59053	1.40316	0.686827
C	4.34083	-0.115623	1.16034
C	5.40022	0.499655	0.527664
N	5.26069	0.449746	-0.819389
C	4.11909	-0.194047	-1.02162
N	3.52647	-0.555831	0.140924
H	4.11632	-0.266341	2.22824
H	6.26273	0.978692	1.01903
H	3.67062	-0.427378	-2.00073
H	2.61944	-1.07311	0.245738
