18
  This energy is -1.1805 and Call times are: 151538
C	-0.0326242	0.444423	1.04299
C	0.242032	-0.872593	0.818469
C	0.19214	-1.04639	-0.598367
C	-0.108599	0.179766	-1.11458
O	-0.249353	1.10211	-0.126409
H	-0.102594	1.028	1.97562
H	0.458088	-1.64428	1.57471
H	0.361823	-1.97962	-1.15906
H	-0.247988	0.521524	-2.15334
C	5.95502	0.225801	0.00603509
C	5.25746	-0.493712	-0.940989
N	3.93919	-0.556984	-0.633316
C	3.81938	0.120699	0.50027
N	5.00678	0.612536	0.926614
H	7.02346	0.481462	0.0873065
H	5.68176	-0.968313	-1.84075
H	2.88537	0.287521	1.06066
H	5.17333	1.1803	1.79331
