18
  This energy is -0.9379 and Call times are: 67598
C	0.134643	-1.11923	0.124881
C	-0.58343	-0.366956	1.00739
C	-0.523768	0.973453	0.517635
C	0.225496	0.921955	-0.620928
O	0.635885	-0.348323	-0.875854
H	0.360082	-2.19798	0.0979213
H	-1.103	-0.720483	1.91247
H	-0.987886	1.86582	0.96748
H	0.533949	1.70825	-1.32934
C	5.9778	0.632671	0.169514
C	5.52096	-0.409305	0.948445
N	4.36038	-0.911368	0.461108
C	4.09822	-0.183626	-0.616058
N	5.04389	0.760664	-0.834288
H	6.87157	1.27086	0.255613
H	6.00799	-0.807811	1.85335
H	3.22742	-0.299839	-1.28121
H	5.06217	1.45753	-1.6187
