18
  This energy is -0.8645 and Call times are: 166762
C	0.0486684	1.11758	0.187211
C	1.09027	0.421231	-0.351814
C	0.653813	-0.936496	-0.430573
C	-0.615966	-0.949979	0.0672766
O	-1.00166	0.295927	0.44934
H	-0.068189	2.18638	0.430637
H	2.06787	0.823336	-0.662768
H	1.22574	-1.79639	-0.814731
H	-1.34011	-1.77032	0.201118
C	6.36246	0.234692	0.765624
C	5.17947	-0.423244	1.02791
N	4.41588	-0.518987	-0.0875646
C	5.12248	0.077285	-1.03825
N	6.304	0.548448	-0.573901
H	7.21339	0.493208	1.41572
H	4.86323	-0.830571	2.00204
H	4.8218	0.196802	-2.09159
H	7.03605	1.05605	-1.12861
