18
  This energy is -2.7239 and Call times are: 195730
C	-0.378345	0.891812	0.589854
C	-0.080987	0.96801	-0.739111
C	0.356968	-0.337862	-1.11728
C	0.288576	-1.09678	0.0139759
O	-0.158501	-0.361907	1.06616
H	-0.749569	1.64838	1.30052
H	-0.161926	1.85484	-1.38802
H	0.683104	-0.664832	-2.11769
H	0.526722	-2.15721	0.198461
C	4.04767	0.19716	1.06846
C	5.38382	0.148713	0.73159
N	5.54565	-0.0998633	-0.590731
C	4.31457	-0.205226	-1.07236
N	3.37615	-0.0339927	-0.111294
H	3.54395	0.373875	2.03209
H	6.23398	0.288668	1.41897
H	4.04342	-0.406978	-2.12117
H	2.33534	-0.070383	-0.240287
