18
  This energy is -1.0177 and Call times are: 178729
C	0.300568	1.01784	0.400073
C	0.680927	-0.145216	1.00257
C	0.115957	-1.19561	0.216693
C	-0.559772	-0.581709	-0.796662
O	-0.457666	0.770063	-0.700245
H	0.501489	2.07188	0.652841
H	1.29749	-0.25268	1.90943
H	0.207386	-2.27941	0.39309
H	-1.14495	-0.989195	-1.63736
C	4.15426	0.0108653	-0.268799
C	5.13988	0.805637	-0.814733
N	6.34964	0.526039	-0.271774
C	6.11542	-0.438521	0.607652
N	4.80678	-0.78423	0.646751
H	3.07084	-0.0433756	-0.460625
H	4.99975	1.5758	-1.59067
H	6.86596	-0.927461	1.24941
H	4.37205	-1.51812	1.25804
