18
  This energy is -0.7354 and Call times are: 32373
C	0.232965	-0.680668	-0.876823
C	1.03103	0.371978	-0.537117
C	0.415982	0.977661	0.600855
C	-0.703637	0.24167	0.856091
O	-0.831048	-0.775125	-0.0366054
H	0.31198	-1.42744	-1.68388
H	1.95968	0.690036	-1.03767
H	0.772941	1.8587	1.15804
H	-1.4804	0.337645	1.63241
C	6.30352	-0.098848	1.00552
C	4.98766	0.288264	0.864845
N	4.61606	0.29191	-0.438385
C	5.69728	-0.0914816	-1.10366
N	6.74142	-0.338916	-0.277752
H	6.93814	-0.216555	1.89824
H	4.29975	0.564995	1.68035
H	5.7793	-0.207732	-2.19636
H	7.70161	-0.653668	-0.561001
