18
  This energy is -0.7861 and Call times are: 82628
C	-0.553183	0.930008	-0.339816
C	-0.251221	0.697343	0.969788
C	0.435868	-0.554587	0.996163
C	0.493123	-0.976442	-0.299651
O	-0.106046	-0.0819879	-1.12908
H	-1.07571	1.76656	-0.832157
H	-0.48852	1.34259	1.83086
H	0.837215	-1.073	1.88175
H	0.926613	-1.88183	-0.755294
C	5.81405	-0.959773	-0.294747
C	5.83656	-0.302904	0.917342
N	5.00456	0.766776	0.908945
C	4.46794	0.773481	-0.303743
N	4.92401	-0.24759	-1.06729
H	6.35051	-1.8538	-0.650366
H	6.43824	-0.581646	1.79776
H	3.73569	1.50333	-0.68501
H	4.65152	-0.456861	-2.05886
