18
  This energy is -1.4575 and Call times are: 64929
C	-0.134141	-0.556702	-0.979025
C	-1.18164	0.000151679	-0.305953
C	-0.620526	0.602564	0.861251
C	0.720334	0.360656	0.798403
O	1.03502	-0.346151	-0.318919
H	-0.090007	-1.12112	-1.92493
H	-2.24299	-0.0120757	-0.601728
H	-1.16032	1.15027	1.65038
H	1.54521	0.63444	1.47654
C	4.06693	0.31741	-0.939985
C	4.12562	-0.935058	-0.366378
N	4.95608	-0.943627	0.704495
C	5.41086	0.298801	0.794885
N	4.90419	1.09753	-0.174086
H	3.50729	0.696135	-1.80999
H	3.58361	-1.83267	-0.706032
H	6.11672	0.677734	1.55146
H	5.10995	2.11687	-0.315053
