18
  This energy is -1.2124 and Call times are: 74294
C	0.784029	-0.819288	0.0216067
C	0.427406	-0.179736	-1.12912
C	-0.571525	0.77017	-0.755041
C	-0.737151	0.627237	0.591255
O	0.0827705	-0.339098	1.08211
H	1.51373	-1.62249	0.215632
H	0.827634	-0.358915	-2.13996
H	-1.0998	1.47392	-1.41818
H	-1.39736	1.14573	1.30577
C	4.85913	0.295577	-1.08109
C	4.49289	-0.960239	-0.645269
N	4.1328	-0.938376	0.661011
C	4.27511	0.326195	1.03415
N	4.71082	1.10984	0.0194395
H	5.20332	0.655432	-2.06373
H	4.48202	-1.88168	-1.24998
H	4.07418	0.73269	2.03845
H	4.89967	2.14121	0.0627981
