18
  This energy is -0.8308 and Call times are: 2668
C	-0.670003	-0.390523	0.82764
C	-1.16618	0.0865791	-0.349881
C	-0.030593	0.478728	-1.1224
C	1.05928	0.206645	-0.348752
O	0.68733	-0.324667	0.845557
H	-1.17149	-0.799637	1.72005
H	-2.22558	0.155455	-0.644882
H	-0.0344721	0.912103	-2.13544
H	2.13785	0.343167	-0.531224
C	5.1346	1.03975	-0.550295
C	4.83887	-0.1843	-1.1119
N	4.89102	-1.17224	-0.185746
C	5.21786	-0.563402	0.946117
N	5.37583	0.77097	0.778522
H	5.18865	2.04938	-0.98762
H	4.58881	-0.372286	-2.16877
H	5.35456	-1.04701	1.92676
H	5.63305	1.468	1.51964
