18
  This energy is -1.7378 and Call times are: 34567
C	-0.559311	0.910999	-0.379016
C	-0.349371	-0.191794	-1.15371
C	0.378901	-1.11017	-0.337419
C	0.549706	-0.487509	0.864036
O	-0.0169597	0.747742	0.856384
H	-1.07309	1.86382	-0.587398
H	-0.674714	-0.343349	-2.19548
H	0.730481	-2.11534	-0.620451
H	1.04925	-0.812517	1.79144
C	4.32606	-0.959201	-0.490316
C	5.53857	-0.382578	-0.804135
N	5.77063	0.713091	-0.0411374
C	4.70615	0.815801	0.743042
N	3.8064	-0.169099	0.510621
H	3.81333	-1.84629	-0.894944
H	6.25009	-0.737504	-1.56743
H	4.53438	1.59306	1.50501
H	2.88793	-0.304954	0.99972
