18
  This energy is -1.4456 and Call times are: 60980
C	0.85858	-0.0433625	0.739839
C	0.0160002	-1.09643	0.536165
C	-0.918791	-0.663549	-0.453227
C	-0.564928	0.615832	-0.766816
O	0.51849	1.01079	-0.0476334
H	1.72658	0.0798137	1.40816
H	0.0493969	-2.07944	1.03283
H	-1.75428	-1.2442	-0.876199
H	-0.997599	1.34132	-1.47513
C	4.70105	-0.402502	1.03065
C	4.11334	-1.14148	0.0258336
N	3.77081	-0.354625	-1.023
C	4.1446	0.867844	-0.670185
N	4.71076	0.891426	0.55965
H	5.09976	-0.696042	2.01473
H	3.93034	-2.2283	0.0388625
H	4.02731	1.78177	-1.27451
H	5.08568	1.73472	1.0592
