18
  This energy is -0.4869 and Call times are: 38665
C	1.09091	0.0434682	-0.307279
C	0.463678	1.08589	0.309416
C	-0.880132	0.656603	0.533037
C	-0.955453	-0.61025	0.0332533
O	0.239177	-1.00075	-0.483837
H	2.12621	-0.0779939	-0.665968
H	0.90321	2.05946	0.579729
H	-1.68966	1.23116	1.0112
H	-1.78993	-1.32902	-0.0142899
C	7.49266	-0.123921	0.419321
C	7.0923	-0.241926	-0.894806
N	5.75866	-0.0361868	-1.01965
C	5.33328	0.208522	0.212337
N	6.34099	0.167012	1.11588
H	8.4826	-0.223082	0.892326
H	7.74184	-0.471831	-1.75509
H	4.29419	0.424283	0.508927
H	6.26034	0.326136	2.15002
