18
  This energy is -0.8685 and Call times are: 75095
C	-0.307251	-1.06732	0.22986
C	-0.354829	-0.548935	-1.03085
C	0.102582	0.799349	-0.916737
C	0.389299	0.985863	0.403634
O	0.144871	-0.143818	1.11854
H	-0.564656	-2.06569	0.620035
H	-0.679465	-1.06431	-1.94906
H	0.203107	1.5372	-1.72887
H	0.768337	1.86349	0.952589
C	6.17567	-0.516365	-0.408067
C	6.09304	0.4068	0.612758
N	4.81054	0.792313	0.820293
C	4.10024	0.110901	-0.0684037
N	4.87764	-0.692191	-0.832784
H	7.03757	-1.04307	-0.847675
H	6.93584	0.801593	1.20325
H	3.0077	0.162165	-0.202422
H	4.55336	-1.32771	-1.60234
