18
  This energy is -0.7491 and Call times are: 42563
C	0.65341	-0.39356	-0.839384
C	-0.702129	-0.544821	-0.836704
C	-1.1621	0.0728738	0.36621
C	-0.0470322	0.547071	0.992422
O	1.07066	0.271049	0.270214
H	1.42288	-0.709504	-1.56282
H	-1.3165	-1.04154	-1.60476
H	-2.204	0.150292	0.716253
H	0.0824346	1.09059	1.94273
C	5.6006	-0.923995	-0.413049
C	4.60691	-0.224614	-1.06467
N	4.13181	0.782851	-0.292781
C	4.82811	0.708755	0.83341
N	5.72655	-0.304092	0.810081
H	6.2068	-1.79007	-0.722842
H	4.22428	-0.428907	-2.07793
H	4.7205	1.37125	1.70734
H	6.39224	-0.567052	1.57752
