18
  This energy is -0.9263 and Call times are: 124833
C	-0.194238	0.313762	1.07249
C	0.781647	-0.578427	0.737792
C	0.716705	-0.71437	-0.682567
C	-0.293132	0.106747	-1.09045
O	-0.860533	0.742479	-0.0317174
H	-0.510312	0.720032	2.04732
H	1.47744	-1.08954	1.42243
H	1.35213	-1.35185	-1.31814
H	-0.699566	0.323866	-2.09191
C	4.61257	-0.610063	0.474737
C	4.63183	0.739712	0.193879
N	5.81698	1.10879	-0.34991
C	6.53024	-0.0077796	-0.406191
N	5.84804	-1.07199	0.0792476
H	3.8331	-1.25313	0.913419
H	3.81181	1.45387	0.373874
H	7.55746	-0.102461	-0.793594
H	6.19429	-2.06062	0.142328
