18
  This energy is -2.0845 and Call times are: 94472
C	-0.198552	-0.946346	0.592796
C	-0.515116	0.292649	1.06719
C	-0.118915	1.21377	0.0500047
C	0.404784	0.456351	-0.956187
O	0.364136	-0.865168	-0.641629
H	-0.321324	-1.95037	1.0311
H	-0.980901	0.533753	2.03622
H	-0.216435	2.31106	0.0735602
H	0.833286	0.733978	-1.9332
C	3.89061	0.0906832	1.05707
C	5.12392	-0.458658	0.77721
N	5.39665	-0.397247	-0.548821
C	4.33657	0.187966	-1.08954
N	3.40065	0.501453	-0.162519
H	3.34514	0.214249	2.00613
H	5.82184	-0.898214	1.50834
H	4.19383	0.410981	-2.15918
H	2.47762	0.968446	-0.339167
