18
  This energy is -1.0993 and Call times are: 172203
C	-0.938694	-0.428189	0.47107
C	-0.490897	0.829965	0.748375
C	0.697763	1.0012	-0.0248545
C	0.871407	-0.167435	-0.70641
O	-0.118807	-1.05167	-0.415532
H	-1.81552	-0.988811	0.834566
H	-0.951427	1.56384	1.42914
H	1.34208	1.89423	-0.0628018
H	1.64848	-0.489803	-1.41879
C	5.90847	0.433535	-0.833793
C	4.85719	1.08252	-0.221609
N	4.25645	0.284005	0.693815
C	4.93248	-0.856021	0.649703
N	5.93845	-0.815969	-0.255841
H	6.61385	0.761498	-1.6138
H	4.5214	2.11262	-0.424051
H	4.73312	-1.75235	1.25886
H	6.61277	-1.58939	-0.475763
