18
  This energy is -0.7215 and Call times are: 156714
C	0.818298	-0.78533	0.00683086
C	-0.346781	-0.950418	-0.682888
C	-1.11028	0.234026	-0.449897
C	-0.344359	1.01835	0.361631
O	0.836817	0.411439	0.65058
H	1.70076	-1.43663	0.117854
H	-0.639213	-1.81913	-1.29438
H	-2.11237	0.46625	-0.844828
H	-0.524226	2.01509	0.796838
C	6.13793	0.32061	0.634502
C	4.90709	0.941356	0.605418
N	4.05812	0.303883	-0.236843
C	4.75963	-0.708482	-0.728406
N	6.01974	-0.741571	-0.233824
H	7.05886	0.551851	1.19303
H	4.6164	1.83777	1.17708
H	4.39927	-1.45571	-1.45368
H	6.76476	-1.44277	-0.467338
