18
  This energy is -1.6389 and Call times are: 81085
C	0.736272	-0.859495	0.0746597
C	0.724159	0.00216439	-0.982587
C	-0.327549	0.931551	-0.717504
C	-0.865277	0.555784	0.47833
O	-0.227781	-0.536251	0.976396
H	1.37232	-1.73119	0.300134
H	1.38912	-0.0149841	-1.86101
H	-0.640142	1.77826	-1.34953
H	-1.69257	0.977239	1.07264
C	4.71344	0.801723	0.861482
C	5.53024	0.766344	-0.248805
N	5.23984	-0.29835	-1.03532
C	4.24666	-0.921109	-0.415323
N	3.8931	-0.296791	0.733073
H	4.65969	1.50734	1.70573
H	6.32389	1.48998	-0.496445
H	3.74151	-1.83835	-0.758434
H	3.13793	-0.593105	1.3988
