18
  This energy is -1.0208 and Call times are: 150653
C	-0.79651	-0.801885	0.0946231
C	0.369302	-1.00673	-0.583088
C	1.10129	0.21545	-0.480237
C	0.318169	1.05927	0.251245
O	-0.84459	0.45445	0.610689
H	-1.66032	-1.46138	0.279438
H	0.68239	-1.92625	-1.10325
H	2.09476	0.431945	-0.904796
H	0.472853	2.10032	0.579167
C	5.53801	0.593116	0.917307
C	4.78046	-0.558097	0.96172
N	4.44493	-0.970625	-0.284777
C	4.99225	-0.0787241	-1.09938
N	5.66211	0.88419	-0.422866
H	5.98274	1.2054	1.71784
H	4.46999	-1.09842	1.87085
H	4.93346	-0.0831831	-2.19973
H	6.17775	1.69753	-0.839812
