18
  This energy is -0.7681 and Call times are: 182414
C	0.459549	1.03645	-0.0314083
C	0.84889	0.0918974	0.872255
C	0.0527461	-1.0621	0.599203
C	-0.752825	-0.720871	-0.447214
O	-0.517827	0.557208	-0.845088
H	0.796042	2.07321	-0.196215
H	1.61943	0.197224	1.65282
H	0.0832717	-2.02941	1.12597
H	-1.52409	-1.28979	-0.991946
C	6.61873	0.303636	0.669956
C	6.59853	0.188742	-0.70392
N	5.37167	-0.180646	-1.14538
C	4.63357	-0.294477	-0.0495366
N	5.33993	-0.0128288	1.07087
H	7.42569	0.579017	1.36746
H	7.44722	0.365762	-1.38453
H	3.57028	-0.581046	-0.0105205
H	4.9817	-0.0318998	2.05706
