18
  This energy is -1.4095 and Call times are: 39177
C	0.158758	0.896424	-0.676477
C	0.31938	-0.385719	-1.11315
C	0.0351467	-1.22006	0.0107752
C	-0.274076	-0.374112	1.03505
O	-0.203612	0.922228	0.633116
H	0.271023	1.86403	-1.19261
H	0.608968	-0.711292	-2.1252
H	0.0605416	-2.32114	0.0434108
H	-0.557294	-0.567407	2.08275
C	5.06529	0.955601	0.171182
C	4.21026	0.720908	-0.884743
N	3.60206	-0.483941	-0.762504
C	4.07797	-0.994761	0.364968
N	4.96377	-0.164874	0.965169
H	5.71708	1.8121	0.405956
H	4.02131	1.39936	-1.7326
H	3.81156	-1.97269	0.797298
H	5.47568	-0.341364	1.86409
