18
  This energy is -2.1157 and Call times are: 4426
C	0.172303	1.02812	-0.446869
C	0.577157	-0.116043	-1.06926
C	0.187526	-1.18783	-0.209265
C	-0.421032	-0.604005	0.862735
O	-0.439173	0.748838	0.734281
H	0.259004	2.08812	-0.736914
H	1.09793	-0.19715	-2.03689
H	0.34614	-2.26515	-0.377541
H	-0.876464	-1.03528	1.76928
C	3.98607	0.623188	-0.980872
C	3.85745	1.11573	0.300535
N	3.6505	0.114731	1.1903
C	3.65073	-0.99459	0.463639
N	3.84925	-0.740907	-0.851589
H	4.15949	1.12995	-1.9435
H	3.91027	2.17544	0.598987
H	3.51	-2.01918	0.843965
H	3.89099	-1.44853	-1.6254
