18
  This energy is -1.1105 and Call times are: 91927
C	0.620642	-0.908364	0.275825
C	-0.740953	-0.90237	0.355817
C	-1.15179	0.398309	-0.0679331
C	-0.00498751	1.07232	-0.369465
O	1.08704	0.289492	-0.165338
H	1.3628	-1.69172	0.50122
H	-1.39082	-1.73077	0.68064
H	-2.18353	0.778876	-0.136983
H	0.165534	2.09873	-0.733677
C	4.54986	-1.05177	0.465091
C	5.53091	-0.768907	-0.461553
N	5.53966	0.549005	-0.777059
C	4.56773	1.08172	-0.0489153
N	3.94094	0.157382	0.716806
H	4.25188	-1.99643	0.947129
H	6.23258	-1.49216	-0.908117
H	4.27268	2.14335	-0.038077
H	3.14311	0.329102	1.37654
