18
  This energy is -1.0506 and Call times are: 13679
C	-0.965243	-0.316489	-0.50452
C	-0.543776	-0.86111	0.672819
C	0.692229	-0.215485	0.981974
C	0.916956	0.666674	-0.0337358
O	-0.0852597	0.61831	-0.95038
H	-1.86093	-0.506084	-1.11857
H	-1.05226	-1.63942	1.26424
H	1.33261	-0.393686	1.86076
H	1.74105	1.3754	-0.217628
C	5.06212	1.13562	0.276485
C	4.72141	0.0478191	1.05221
N	5.02016	-1.11429	0.42231
C	5.5442	-0.748811	-0.73977
N	5.59127	0.597661	-0.875374
H	4.96858	2.21837	0.456611
H	4.26539	0.0806799	2.05511
H	5.90975	-1.42628	-1.52821
H	5.96051	1.13032	-1.70072
