18
  This energy is -0.8091 and Call times are: 84984
C	-0.577616	-0.789735	0.573655
C	-0.914108	0.531571	0.609693
C	0.0327659	1.19911	-0.225736
C	0.864291	0.226795	-0.698545
O	0.506172	-0.993963	-0.220515
H	-1.02387	-1.67141	1.06229
H	-1.74568	0.99015	1.16852
H	0.0813066	2.27816	-0.443433
H	1.73552	0.273933	-1.37233
C	6.26074	0.34705	-0.373475
C	5.36367	-0.449133	-1.05355
N	4.23851	-0.649644	-0.325314
C	4.43681	0.0196029	0.802254
N	5.6415	0.637622	0.821639
H	7.26254	0.715148	-0.646295
H	5.50815	-0.882486	-2.05664
H	3.73271	0.0904402	1.64691
H	6.02982	1.22603	1.59897
