18
  This energy is -1.2682 and Call times are: 55091
C	0.65437	0.899073	0.223313
C	1.16555	-0.355946	0.0684067
C	0.0471039	-1.20363	-0.197343
C	-1.04881	-0.391788	-0.181374
O	-0.696452	0.895695	0.0740505
H	1.1401	1.86482	0.439282
H	2.22404	-0.654793	0.134637
H	0.0660037	-2.29039	-0.378126
H	-2.11929	-0.605507	-0.335169
C	4.72373	1.04615	0.509499
C	4.66869	0.762576	-0.838722
N	4.92372	-0.547557	-1.07328
C	5.13617	-1.07475	0.124864
N	5.02689	-0.154358	1.11205
H	4.57363	1.98595	1.06429
H	4.44952	1.47984	-1.6464
H	5.37548	-2.12938	0.336327
H	5.14969	-0.323118	2.14049
