18
  This energy is -1.1727 and Call times are: 197492
C	0.511693	-1.00959	-0.0727664
C	0.153374	-0.456704	1.12151
C	-0.454371	0.796645	0.805476
C	-0.413788	0.899019	-0.554026
O	0.172868	-0.195235	-1.10671
H	1.00707	-1.96351	-0.317498
H	0.302112	-0.888183	2.12441
H	-0.870528	1.53015	1.51462
H	-0.764026	1.68901	-1.23849
C	3.91586	0.231476	0.395147
C	4.4544	-1.01109	0.136024
N	5.73053	-0.907574	-0.308146
C	5.9827	0.394258	-0.324511
N	4.91992	1.12335	0.0908337
H	2.9223	0.534077	0.762318
H	3.94502	-1.98043	0.261604
H	6.92903	0.867846	-0.631776
H	4.87025	2.16884	0.166607
