18
  This energy is -1.0329 and Call times are: 151666
C	0.264862	0.554779	-0.953136
C	1.1401	-0.285245	-0.329686
C	0.45214	-0.78522	0.817855
C	-0.782772	-0.206588	0.794349
O	-0.914455	0.614789	-0.280365
H	0.359588	1.1607	-1.86918
H	2.16715	-0.528412	-0.646143
H	0.839728	-1.49311	1.56803
H	-1.64528	-0.296331	1.475
C	4.78167	-1.13189	-0.0508001
C	4.81977	-0.332602	1.07207
N	5.23449	0.920697	0.765867
C	5.45285	0.899001	-0.541984
N	5.19425	-0.316148	-1.08062
H	4.49957	-2.18822	-0.18542
H	4.55544	-0.63779	2.09766
H	5.80263	1.74498	-1.15533
H	5.28983	-0.585546	-2.09035
