18
  This energy is -1.8177 and Call times are: 92971
C	-0.0784576	-0.287138	-1.09444
C	0.506857	-1.09781	-0.166754
C	0.413346	-0.400625	1.07635
C	-0.220857	0.774534	0.798574
O	-0.528491	0.860578	-0.522399
H	-0.235263	-0.410894	-2.17857
H	0.959095	-2.08746	-0.340417
H	0.778666	-0.742257	2.05815
H	-0.507774	1.62084	1.4441
C	4.12508	-0.313663	-1.11178
C	3.88464	-1.15588	-0.0468771
N	3.66259	-0.453886	1.09085
C	3.76489	0.818982	0.733121
N	4.04282	0.955976	-0.585051
H	4.34167	-0.521044	-2.17179
H	3.86741	-2.25747	-0.0791074
H	3.6455	1.69078	1.3964
H	4.17119	1.85759	-1.10647
