18
  This energy is -2.3981 and Call times are: 196211
C	-0.350961	-0.456019	0.977381
C	-0.0324145	-1.2152	-0.110065
C	0.358807	-0.293935	-1.12905
C	0.244795	0.946898	-0.574334
O	-0.187453	0.866729	0.711646
H	-0.701828	-0.733092	1.98504
H	-0.0692419	-2.31376	-0.186943
H	0.685617	-0.53618	-2.15306
H	0.438275	1.95168	-0.98449
C	3.37662	0.0290837	0.927882
C	4.3495	0.952241	0.607839
N	4.9964	0.605371	-0.531332
C	4.427	-0.528662	-0.916535
N	3.44463	-0.91772	-0.0696778
H	2.66445	-0.019488	1.76693
H	4.59624	1.86236	1.1785
H	4.6908	-1.11585	-1.81088
H	2.84838	-1.77691	-0.156467
