18
  This energy is -0.9008 and Call times are: 133346
C	-0.480455	0.656899	0.789967
C	-0.984451	-0.564092	0.45005
C	-0.117965	-1.07642	-0.563278
C	0.839038	-0.123287	-0.753137
O	0.633139	0.942181	0.0650294
H	-0.817477	1.40886	1.52224
H	-1.87687	-1.05475	0.870691
H	-0.204991	-2.04329	-1.08452
H	1.70765	-0.084187	-1.43081
C	4.59304	-0.580911	-0.183501
C	4.79206	0.780235	-0.277395
N	6.07776	1.10637	0.000303254
C	6.67409	-0.0480537	0.265466
N	5.82111	-1.0952	0.167993
H	3.69439	-1.19934	-0.336822
H	4.03098	1.53281	-0.540539
H	7.73351	-0.183672	0.536519
H	6.0514	-2.10622	0.329422
