18
  This energy is -0.8055 and Call times are: 36026
C	0.208312	0.740471	-0.833492
C	1.20258	0.0524082	-0.202327
C	0.553826	-0.767381	0.770903
C	-0.779621	-0.507911	0.648551
O	-1.00874	0.410623	-0.326545
H	0.236182	1.48318	-1.64765
H	2.28433	0.115793	-0.402055
H	1.03256	-1.46598	1.47579
H	-1.65443	-0.905859	1.18854
C	6.16066	-0.0783216	1.17363
C	7.28926	0.0286816	0.388807
N	6.96576	0.0981664	-0.925359
C	5.64151	0.0345117	-0.955693
N	5.10901	-0.0725942	0.284697
H	6.03562	-0.155563	2.26539
H	8.33116	0.0569915	0.747261
H	5.01131	0.062074	-1.8592
H	4.08932	-0.138681	0.523701
