18
  This energy is -0.9726 and Call times are: 138608
C	0.111243	-1.10377	-0.236058
C	0.924964	-0.154588	-0.781302
C	0.47898	1.09433	-0.250813
C	-0.567905	0.798097	0.571775
O	-0.806312	-0.539712	0.592764
H	0.0830221	-2.19921	-0.356276
H	1.7559	-0.31756	-1.48634
H	0.89538	2.09222	-0.462765
H	-1.21667	1.4404	1.18968
C	4.38032	-0.728001	0.0964289
C	4.93012	0.0474792	1.09518
N	5.98166	0.766404	0.632677
C	6.08383	0.438173	-0.648124
N	5.14088	-0.459792	-1.01973
H	3.53003	-1.42838	0.100827
H	4.58688	0.101119	2.1412
H	6.8309	0.825655	-1.35944
H	5.01344	-0.872971	-1.97592
