18
  This energy is -0.5781 and Call times are: 14260
C	-0.651461	0.793855	0.481449
C	-0.99954	-0.524824	0.464078
C	0.0573223	-1.19919	-0.220308
C	0.957937	-0.233082	-0.56074
O	0.541134	0.990137	-0.140002
H	-1.15955	1.67868	0.898804
H	-1.90927	-0.977267	0.890433
H	0.129936	-2.27846	-0.430086
H	1.92037	-0.28658	-1.09564
C	6.43236	-0.468144	0.793465
C	5.16634	-0.910786	0.473451
N	4.60513	-0.134605	-0.485245
C	5.51951	0.786058	-0.758939
N	6.63925	0.62784	-0.014126
H	7.17591	-0.842999	1.51468
H	4.64781	-1.7763	0.917138
H	5.42086	1.59926	-1.49596
H	7.50086	1.22608	-0.0458168
