18
  This energy is -0.8628 and Call times are: 59294
C	0.882805	0.623381	-0.34417
C	0.123494	0.966008	0.735843
C	-0.875352	-0.0486613	0.849281
C	-0.638247	-0.921767	-0.171425
O	0.431807	-0.526851	-0.910368
H	1.75898	1.10811	-0.805264
H	0.253709	1.84508	1.38728
H	-1.67356	-0.112714	1.60616
H	-1.15187	-1.84885	-0.47468
C	6.66321	-0.125306	-0.127783
C	6.01021	0.857678	0.585286
N	4.66608	0.698162	0.519096
C	4.48591	-0.379683	-0.232178
N	5.65968	-0.912577	-0.646744
H	7.73526	-0.314014	-0.297006
H	6.48485	1.67913	1.14633
H	3.51561	-0.822006	-0.509871
H	5.78198	-1.76337	-1.24879
