18
  This energy is -1.7757 and Call times are: 57255
C	0.362049	-0.0300979	-1.07444
C	0.36838	1.11493	-0.33333
C	-0.153105	0.755038	0.946766
C	-0.432072	-0.578149	0.874904
O	-0.123637	-1.07396	-0.352308
H	0.672944	-0.23057	-2.1129
H	0.706369	2.11288	-0.655747
H	-0.299833	1.41847	1.81419
H	-0.846773	-1.27938	1.61757
C	3.72228	0.943255	-0.681014
C	3.69241	-0.378193	-1.07348
N	3.94099	-1.2041	-0.0282036
C	4.12439	-0.398081	1.00878
N	4.00279	0.906427	0.66663
H	3.56889	1.87612	-1.24649
H	3.49594	-0.750469	-2.09213
H	4.35031	-0.710382	2.04108
H	4.10309	1.73242	1.30611
