18
  This energy is -0.7692 and Call times are: 30167
C	-0.818322	-0.168502	-0.767044
C	0.400817	-0.773809	-0.854666
C	1.14532	-0.319066	0.276283
C	0.31541	0.523983	0.955175
O	-0.887976	0.627659	0.332177
H	-1.70905	-0.221374	-1.4144
H	0.741648	-1.47063	-1.6372
H	2.17816	-0.59321	0.544953
H	0.460585	1.10384	1.88143
C	6.69887	-0.611186	0.117493
C	5.6406	-0.90739	-0.71526
N	4.65227	0.0120289	-0.595346
C	5.09572	0.875332	0.308361
N	6.32523	0.543317	0.768418
H	7.65937	-1.12318	0.2873
H	5.5725	-1.76804	-1.40046
H	4.56062	1.76822	0.669812
H	6.88687	1.06582	1.48453
