18
  This energy is -1.4898 and Call times are: 137298
C	0.781914	0.293768	0.767276
C	0.811674	-0.904234	0.115907
C	-0.320234	-0.903852	-0.755243
C	-0.941765	0.29435	-0.559319
O	-0.282244	1.03842	0.367182
H	1.4509	0.729432	1.52748
H	1.55604	-1.70761	0.236762
H	-0.627973	-1.70687	-1.44412
H	-1.84772	0.730547	-1.01123
C	4.70048	1.07705	0.463626
C	4.93082	0.715464	-0.846848
N	4.71909	-0.61015	-1.0324
C	4.35878	-1.06919	0.15843
N	4.33247	-0.0905969	1.09398
H	4.77009	2.0502	0.975177
H	5.24598	1.38733	-1.66178
H	4.10315	-2.11325	0.400971
H	4.07987	-0.200428	2.10659
