18
  This energy is -2.3706 and Call times are: 22444
C	0.0900724	0.743296	-0.851939
C	-0.0130758	1.13428	0.4507
C	-0.10595	-0.0693966	1.21402
C	-0.0513569	-1.08967	0.310454
O	0.0683591	-0.611583	-0.956082
H	0.183382	1.32395	-1.78435
H	-0.0227881	2.16673	0.835462
H	-0.201989	-0.155751	2.30829
H	-0.0872724	-2.18381	0.440131
C	5.6188	0.940557	-0.672735
C	6.25893	-0.279631	-0.722855
N	5.7517	-1.13568	0.197152
C	4.80051	-0.449165	0.815667
N	4.6815	0.808199	0.327338
H	5.75924	1.86294	-1.25842
H	7.0777	-0.557641	-1.40637
H	4.16083	-0.818983	1.63315
H	4.00426	1.54236	0.649224
