18
  This energy is -1.1234 and Call times are: 139861
C	0.145194	0.681717	-0.894753
C	-0.946517	-0.124837	-0.760533
C	-0.770463	-0.81865	0.475487
C	0.41329	-0.374828	0.987469
O	0.986095	0.541863	0.163707
H	0.436677	1.39188	-1.68593
H	-1.79107	-0.221512	-1.46159
H	-1.45137	-1.56022	0.923297
H	0.949736	-0.630039	1.91609
C	5.42175	1.13065	0.23991
C	6.34873	0.137373	0.00485294
N	5.74189	-1.04957	-0.238901
C	4.44338	-0.793619	-0.15538
N	4.19886	0.506978	0.131411
H	5.54176	2.20145	0.469071
H	7.44454	0.255914	0.00677599
H	3.62837	-1.52191	-0.295357
H	3.25714	0.954924	0.248758
