18
  This energy is -0.6735 and Call times are: 153458
C	-0.78322	-0.75447	0.322091
C	-0.975961	0.5912	0.433442
C	0.215191	1.19958	-0.0677017
C	1.03068	0.171981	-0.441055
O	0.436925	-1.02848	-0.210052
H	-1.42848	-1.60948	0.582557
H	-1.8675	1.10397	0.828819
H	0.430821	2.27784	-0.138134
H	2.04278	0.163474	-0.877881
C	5.00683	-0.380417	-0.78183
C	5.36192	-0.992668	0.401472
N	6.30852	-0.277724	1.05669
C	6.5398	0.774058	0.28281
N	5.77959	0.757966	-0.837642
H	4.28306	-0.664765	-1.56211
H	4.95205	-1.93746	0.794178
H	7.25546	1.5862	0.488936
H	5.77897	1.47589	-1.60304
