18
  This energy is -1.414 and Call times are: 140438
C	-0.464129	0.939379	-0.434226
C	-0.200611	-0.163033	-1.19292
C	0.372289	-1.12224	-0.303081
C	0.408288	-0.521316	0.920832
O	-0.0985979	0.73816	0.859184
H	-0.904088	1.91658	-0.692602
H	-0.3906	-0.288197	-2.27104
H	0.714806	-2.13899	-0.554095
H	0.765463	-0.878758	1.90058
C	3.71368	-0.411705	-0.772848
C	3.92467	0.907011	-0.429897
N	4.91013	1.0201	0.493468
C	5.30897	-0.223726	0.722476
N	4.61813	-1.12354	-0.0169019
H	3.00747	-0.878403	-1.47783
H	3.3835	1.77888	-0.832175
H	6.10295	-0.53198	1.42162
H	4.74695	-2.16501	-0.014718
