18
  This energy is -0.7882 and Call times are: 159962
C	0.880389	0.126327	0.703816
C	0.305203	-1.08694	0.463998
C	-0.754993	-0.84104	-0.461007
C	-0.734086	0.50079	-0.704789
O	0.258323	1.10728	-0.00171826
H	1.72641	0.420089	1.34662
H	0.598117	-2.05769	0.89522
H	-1.44752	-1.58322	-0.889569
H	-1.36322	1.1367	-1.34904
C	4.87537	0.629829	0.365344
C	6.15796	1.0894	0.153437
N	6.97181	0.0904791	-0.26646
C	6.19706	-0.984714	-0.314861
N	4.924	-0.711307	0.0568338
H	3.96195	1.14506	0.702603
H	6.51068	2.12387	0.296003
H	6.51084	-1.99732	-0.615533
H	4.12603	-1.39139	0.101494
