18
  This energy is -0.8422 and Call times are: 162149
C	0.816874	-0.634334	-0.465552
C	0.0161366	-1.09573	0.537599
C	-0.873568	-0.0235409	0.852181
C	-0.537976	0.998398	0.0134972
O	0.492439	0.642817	-0.798178
H	1.64257	-1.1104	-1.01948
H	0.0487304	-2.09123	1.00878
H	-1.66795	-0.0224553	1.61576
H	-0.950217	2.01417	-0.102725
C	6.45652	0.181737	0.120488
C	5.77832	-0.0850554	-1.04998
N	4.45157	-0.240118	-0.821481
C	4.30725	-0.0701682	0.485773
N	5.48717	0.1866	1.09851
H	7.52473	0.36245	0.320015
H	6.22254	-0.168436	-2.05525
H	3.35989	-0.123036	1.04608
H	5.63534	0.35693	2.12335
