18
  This energy is -0.8023 and Call times are: 32053
C	-0.597906	-0.112385	-0.957224
C	-1.16997	-0.210455	0.277078
C	-0.111071	-0.0147499	1.21546
C	1.01459	0.185637	0.471746
O	0.735726	0.12934	-0.857192
H	-1.02572	-0.19424	-1.96991
H	-2.23116	-0.401451	0.503994
H	-0.188024	-0.0238397	2.31459
H	2.06013	0.376086	0.764725
C	5.20966	0.797037	-0.713717
C	6.23719	-0.0690381	-1.02232
N	6.55296	-0.850452	0.038903
C	5.72447	-0.470588	1.0022
N	4.89465	0.520128	0.597878
H	4.6974	1.5652	-1.31459
H	6.75636	-0.144072	-1.99169
H	5.68274	-0.884595	2.02253
H	4.15268	0.988144	1.17381
