18
  This energy is -0.8409 and Call times are: 177773
C	-0.0742227	-0.480496	1.0247
C	-1.17539	-0.168427	0.282802
C	-0.681318	0.410856	-0.925685
C	0.678156	0.401641	-0.815592
O	1.06634	-0.139231	0.36922
H	0.0297038	-0.941953	2.02045
H	-2.22981	-0.329954	0.558857
H	-1.2765	0.787769	-1.77291
H	1.46954	0.746199	-1.50134
C	4.55543	0.680565	-0.172343
C	5.1509	-0.15678	-1.0918
N	6.22065	-0.791384	-0.553808
C	6.28855	-0.34941	0.69466
N	5.30636	0.540101	0.973327
H	3.67965	1.34432	-0.249648
H	4.82782	-0.314386	-2.13374
H	7.03739	-0.644298	1.44733
H	5.1472	1.02951	1.88788
