18
  This energy is -0.9013 and Call times are: 115911
C	0.564859	0.970314	-0.160702
C	1.19061	-0.240933	-0.119557
C	0.160209	-1.2062	0.0964417
C	-1.00424	-0.499604	0.168221
O	-0.7758	0.831118	0.0132751
H	0.956026	1.99076	-0.3054
H	2.26955	-0.435185	-0.230209
H	0.281404	-2.29766	0.186559
H	-2.04677	-0.822235	0.324064
C	4.87133	-0.303948	0.947357
C	5.3725	-1.14972	-0.0194189
N	6.04951	-0.459585	-0.969092
C	5.96866	0.809495	-0.592898
N	5.26826	0.955447	0.556769
H	4.28004	-0.502529	1.85537
H	5.25771	-2.24553	-0.0487131
H	6.40424	1.67205	-1.12252
H	5.06611	1.85634	1.05556
