18
  This energy is -1.0308 and Call times are: 29280
C	-0.134605	-0.204405	-1.10748
C	-1.18988	-0.111431	-0.248328
C	-0.625358	0.149001	1.0376
C	0.725047	0.192184	0.850748
O	1.04252	-0.0215771	-0.453294
H	-0.0896863	-0.394646	-2.19239
H	-2.25861	-0.215777	-0.495343
H	-1.16938	0.286725	1.98585
H	1.55544	0.364309	1.55507
C	5.5011	-0.717317	-0.713602
C	5.405	-0.805692	0.659023
N	4.62994	0.186932	1.1595
C	4.24666	0.888436	0.101384
N	4.74573	0.383304	-1.05159
H	6.03573	-1.33902	-1.44927
H	5.88104	-1.5679	1.2972
H	3.60064	1.78103	0.114206
H	4.58742	0.758584	-2.01874
