18
  This energy is -0.9357 and Call times are: 103936
C	0.059426	0.837588	-0.762441
C	0.915237	-0.224383	-0.77581
C	0.528754	-1.05184	0.3224
C	-0.529114	-0.42247	0.909922
O	-0.829313	0.73296	0.260402
H	-0.0198443	1.72095	-1.41715
H	1.73631	-0.406758	-1.48762
H	0.990597	-2.00333	0.631372
H	-1.14614	-0.690433	1.78326
C	4.5045	0.515467	0.358295
C	4.78235	0.0418852	-0.906483
N	6.02638	-0.492332	-0.965844
C	6.51842	-0.350702	0.257456
N	5.63903	0.251485	1.0927
H	3.60957	1.00532	0.773847
H	4.10748	0.0760949	-1.77724
H	7.51719	-0.670303	0.595908
H	5.79227	0.474744	2.10657
