18
  This energy is -0.9504 and Call times are: 101538
C	-0.509804	0.672528	-0.757765
C	0.732455	0.148871	-0.965005
C	1.02634	-0.631345	0.194742
C	-0.0622792	-0.515592	1.00831
O	-1.01011	0.277094	0.442377
H	-1.1383	1.33165	-1.37889
H	1.37718	0.297146	-1.84617
H	1.94422	-1.20827	0.39156
H	-0.281872	-0.942064	2.00086
C	4.50129	0.420135	0.0374983
C	4.94328	-0.67903	-0.667923
N	6.27117	-0.876647	-0.483057
C	6.65151	0.096222	0.333945
N	5.62067	0.904652	0.676572
H	3.5027	0.876608	0.126965
H	4.32783	-1.33302	-1.30696
H	7.67274	0.263055	0.712736
H	5.66558	1.74116	1.30863
