18
  This energy is -0.9087 and Call times are: 59614
C	-0.692444	0.537226	0.719938
C	0.429283	1.12298	0.211018
C	1.02754	0.146289	-0.642382
C	0.218583	-0.950081	-0.579627
O	-0.836681	-0.728964	0.247741
H	-1.45989	0.910688	1.41765
H	0.798406	2.14073	0.416009
H	1.95273	0.256218	-1.23062
H	0.283547	-1.93558	-1.06934
C	6.11564	1.05404	-0.0906144
C	6.54778	-0.016499	0.663272
N	5.71133	-1.07482	0.533565
C	4.76388	-0.662401	-0.297627
N	4.96283	0.614457	-0.702158
H	6.53297	2.06389	-0.230531
H	7.44812	-0.0442098	1.29846
H	3.90138	-1.25472	-0.643285
H	4.35475	1.16473	-1.35691
