18
  This energy is -0.568 and Call times are: 72316
C	1.04816	0.153626	-0.405163
C	0.806169	-0.508644	0.762404
C	-0.611935	-0.495851	0.9325
C	-1.11134	0.173107	-0.14614
O	-0.111553	0.576901	-0.973417
H	1.98791	0.38691	-0.93214
H	1.55151	-0.960813	1.43627
H	-1.18471	-0.936128	1.76447
H	-2.14475	0.424192	-0.436447
C	5.2864	0.402747	-0.442154
C	5.61043	-0.911462	-0.179469
N	6.86337	-1.01403	0.32663
C	7.31491	0.231815	0.377721
N	6.40121	1.12282	-0.074891
H	4.37189	0.861231	-0.850817
H	4.9626	-1.78748	-0.346055
H	8.3072	0.547854	0.737876
H	6.51949	2.16383	-0.134655
