18
  This energy is -1.1122 and Call times are: 162618
C	0.418803	-0.853305	-0.61877
C	-0.796236	-0.925141	-0.00322607
C	-0.969184	0.323968	0.667545
C	0.155437	1.04885	0.402686
O	1.01392	0.345266	-0.381532
H	0.964767	-1.57737	-1.24559
H	-1.50011	-1.77272	-0.0198558
H	-1.83381	0.637429	1.27439
H	0.460761	2.0628	0.709174
C	4.35303	0.274556	-0.769641
C	5.71429	0.356512	-0.973081
N	6.39764	-0.0394675	0.128167
C	5.46386	-0.365837	1.01143
N	4.2147	-0.193931	0.517827
H	3.50136	0.508654	-1.42798
H	6.2156	0.694269	-1.89474
H	5.6396	-0.73632	2.03422
H	3.31268	-0.381745	1.02017
