18
  This energy is -1.1808 and Call times are: 46735
C	-0.12795	-0.24944	-1.099
C	-1.16867	-0.276871	-0.2178
C	-0.61882	0.0905353	1.04821
C	0.709369	0.31005	0.828894
O	1.02659	0.107017	-0.476923
H	-0.0795175	-0.46012	-2.17998
H	-2.21827	-0.530399	-0.437283
H	-1.15733	0.17851	2.00548
H	1.52287	0.610581	1.50945
C	4.55062	0.757272	-0.780827
C	4.14936	-0.544045	-0.564712
N	4.88655	-1.12694	0.411658
C	5.74189	-0.19079	0.799782
N	5.57949	0.963579	0.110835
H	4.18889	1.52549	-1.48263
H	3.34113	-1.07279	-1.0958
H	6.50833	-0.297456	1.58427
H	6.13205	1.84736	0.232701
