18
  This energy is -1.0725 and Call times are: 129594
C	-0.781841	-0.143767	-0.808985
C	-1.02369	-0.437064	0.500923
C	0.182771	-0.127629	1.20008
C	1.05537	0.327445	0.255698
O	0.482956	0.324314	-0.97692
H	-1.41843	-0.222894	-1.7055
H	-1.95795	-0.831726	0.931624
H	0.369911	-0.234672	2.28064
H	2.09745	0.678867	0.331989
C	4.49199	-0.338207	-0.877169
C	4.99413	0.927469	-0.660226
N	5.77736	0.959558	0.445229
C	5.76117	-0.281491	0.912304
N	5.00011	-1.10189	0.149858
H	3.83106	-0.736222	-1.66349
H	4.80531	1.81806	-1.28154
H	6.28904	-0.643996	1.80906
H	4.82961	-2.12482	0.310474
