18
  This energy is -1.0566 and Call times are: 108934
C	-0.417104	-0.663383	-0.819968
C	0.61973	0.196831	-1.033
C	0.852971	0.845461	0.218002
C	-0.0619226	0.324356	1.08506
O	-0.845801	-0.598609	0.468067
H	-0.934439	-1.36593	-1.49379
H	1.16554	0.358397	-1.97644
H	1.61558	1.60992	0.437356
H	-0.254726	0.524311	2.15188
C	6.12564	0.523049	0.84858
C	6.57973	-0.411474	-0.0578465
N	5.58826	-0.802174	-0.895013
C	4.52314	-0.112653	-0.509407
N	4.7958	0.700571	0.538404
H	6.63763	1.05653	1.66516
H	7.605	-0.810813	-0.122764
H	3.51872	-0.164936	-0.959568
H	4.12247	1.34377	1.02232
