18
  This energy is -2.143 and Call times are: 99804
C	-0.359229	-1.06034	0.181781
C	0.265186	-0.688449	-0.97242
C	0.560597	0.701391	-0.826843
C	0.0906257	1.05613	0.403467
O	-0.474264	-0.00743255	1.03335
H	-0.763844	-2.03037	0.514306
H	0.49473	-1.32862	-1.83936
H	1.06472	1.35306	-1.55847
H	0.0970461	2.01992	0.938549
C	3.67306	-0.816947	0.837602
C	3.48533	0.54238	0.972258
N	3.71837	1.18606	-0.197307
C	4.04942	0.229685	-1.05427
N	4.03667	-0.995816	-0.478445
H	3.57684	-1.64213	1.56103
H	3.1859	1.07021	1.89236
H	4.3105	0.371442	-2.11539
H	4.26103	-1.90837	-0.94553
