18
  This energy is -1.0119 and Call times are: 146069
C	0.0413465	0.553069	0.989346
C	1.10149	0.509024	0.132299
C	0.669009	-0.268691	-0.984947
C	-0.617238	-0.631242	-0.712005
O	-1.01683	-0.138028	0.489692
H	-0.084645	1.03618	1.97219
H	2.08899	0.977226	0.272766
H	1.25452	-0.523369	-1.88295
H	-1.34498	-1.23024	-1.2837
C	4.97857	-1.06464	0.450127
C	4.72194	0.153839	1.04225
N	5.10483	1.17706	0.240414
C	5.59712	0.595571	-0.845011
N	5.54333	-0.755213	-0.767038
H	4.80507	-2.09564	0.797198
H	4.26737	0.312982	2.03365
H	6.01007	1.11165	-1.72669
H	5.86967	-1.43692	-1.49508
