18
  This energy is -0.6953 and Call times are: 165700
C	-0.0488134	1.1182	0.183418
C	-0.98724	0.256483	0.670419
C	-0.586896	-1.04392	0.235928
C	0.560834	-0.86207	-0.478226
O	0.904058	0.452243	-0.520533
H	0.0521921	2.21275	0.267173
H	-1.87257	0.511041	1.27497
H	-1.10011	-1.99809	0.436624
H	1.21888	-1.57691	-0.999022
C	5.4344	-0.65044	0.82246
C	4.29745	0.113313	0.981107
N	3.95901	0.732006	-0.176126
C	4.88249	0.353512	-1.04937
N	5.79448	-0.480357	-0.495722
H	5.99406	-1.28188	1.53069
H	3.71529	0.229018	1.90984
H	4.93821	0.657233	-2.10714
H	6.61881	-0.914581	-0.978616
