18
  This energy is -0.7985 and Call times are: 65840
C	1.01242	-0.412028	0.302705
C	0.133523	0.104662	1.20876
C	-1.00913	0.513718	0.455677
C	-0.727616	0.210887	-0.844099
O	0.502877	-0.355148	-0.95592
H	2.01848	-0.845701	0.42533
H	0.2756	0.189256	2.29814
H	-1.92914	0.978528	0.845072
H	-1.31145	0.346376	-1.76932
C	5.09029	-0.8125	0.594297
C	4.8892	-0.418112	-0.711523
N	5.77492	0.541343	-1.07408
C	6.52265	0.741414	0.00271837
N	6.14939	-0.0509701	1.03538
H	4.57196	-1.55637	1.22002
H	4.12088	-0.808673	-1.39855
H	7.35682	1.45615	0.0895167
H	6.58399	-0.0797334	1.99014
