18
  This energy is -1.858 and Call times are: 207700
C	-0.159479	-1.10429	-0.203747
C	0.179958	-0.221739	-1.18673
C	0.2892	1.05138	-0.548496
C	0.00687538	0.834431	0.768166
O	-0.269446	-0.47648	0.996576
H	-0.348593	-2.19003	-0.229404
H	0.3376	-0.444868	-2.25419
H	0.548381	2.01161	-1.02271
H	-0.0302397	1.52011	1.63055
C	4.36316	-0.826541	-0.767114
C	5.54815	-0.121674	-0.777375
N	5.60531	0.753108	0.256066
C	4.46013	0.591546	0.904978
N	3.6767	-0.34977	0.327258
H	3.97282	-1.60763	-1.43873
H	6.3629	-0.228648	-1.51195
H	4.14437	1.13668	1.80905
H	2.72726	-0.657731	0.651267
