18
  This energy is -1.0791 and Call times are: 190697
C	0.12981	-0.316423	1.0814
C	-0.938754	-0.707279	0.329219
C	-0.748785	-0.115876	-0.956965
C	0.419097	0.584171	-0.877213
O	0.969187	0.472754	0.360527
H	0.404515	-0.529399	2.12755
H	-1.77669	-1.3478	0.648108
H	-1.41015	-0.206691	-1.83358
H	0.958125	1.19407	-1.62066
C	5.62516	0.44656	0.765046
C	6.25581	1.11784	-0.261018
N	7.08592	0.294401	-0.946129
C	6.97069	-0.883236	-0.347366
N	6.10166	-0.843225	0.690318
H	4.89534	0.784152	1.518
H	6.12672	2.18156	-0.519244
H	7.49978	-1.80817	-0.628062
H	5.84061	-1.64245	1.31829
