18
  This energy is -1.9677 and Call times are: 158699
C	-0.475505	0.939579	-0.421291
C	-0.524432	0.628111	0.905723
C	0.174767	-0.609807	1.04282
C	0.589241	-0.945533	-0.212514
O	0.20082	-0.0105126	-1.11909
H	-0.877634	1.79639	-0.986468
H	-1.00471	1.21156	1.7076
H	0.344385	-1.17699	1.97214
H	1.15998	-1.81117	-0.58693
C	5.63035	0.715675	0.80767
C	6.79675	0.91808	0.100777
N	7.03843	-0.110362	-0.747991
C	6.02582	-0.9476	-0.568334
N	5.14986	-0.494498	0.35956
H	5.12508	1.32679	1.57238
H	7.46823	1.78776	0.187986
H	5.87666	-1.9066	-1.09017
H	4.27195	-0.97376	0.677118
