18
  This energy is -1.2559 and Call times are: 126310
C	0.203262	1.02886	0.431896
C	0.629108	-0.115577	1.03959
C	0.187685	-1.18833	0.206246
C	-0.46894	-0.604737	-0.837131
O	-0.4691	0.748859	-0.71551
H	0.313431	2.08955	0.711284
H	1.1971	-0.196249	1.98032
H	0.345376	-2.26612	0.372388
H	-0.972968	-1.03668	-1.71726
C	5.11568	0.0430026	-1.05703
C	4.10301	-0.806345	-0.664296
N	3.74826	-0.580878	0.624047
C	4.53785	0.404595	1.02902
N	5.38029	0.8155	0.0517619
H	5.64898	0.148842	-2.01512
H	3.62199	-1.57779	-1.28747
H	4.54102	0.863183	2.03098
H	6.09824	1.57739	0.124797
