18
  This energy is -1.1874 and Call times are: 186298
C	0.570919	-0.957157	0.210483
C	0.519785	-0.395199	-1.03128
C	-0.281036	0.779754	-0.896042
C	-0.648577	0.832072	0.416417
O	-0.137118	-0.220857	1.1069
H	1.07049	-1.86729	0.581078
H	0.998022	-0.770426	-1.95029
H	-0.547156	1.49664	-1.68936
H	-1.26327	1.55677	0.975177
C	5.67071	-0.333021	0.718365
C	4.31649	-0.4462	0.951632
N	3.59892	0.0386927	-0.0907116
C	4.50454	0.451118	-0.967288
N	5.76858	0.248738	-0.525889
H	6.54262	-0.615863	1.32936
H	3.84434	-0.869048	1.85337
H	4.29679	0.908744	-1.94792
H	6.6544	0.489184	-1.03458
