18
  This energy is -1.0825 and Call times are: 74902
C	0.570868	-0.973367	-0.114315
C	0.210196	-0.476841	1.10378
C	-0.481591	0.744394	0.83895
C	-0.482591	0.88634	-0.517598
O	0.155867	-0.15366	-1.11575
H	1.11758	-1.88749	-0.398466
H	0.411141	-0.925552	2.08987
H	-0.923656	1.43081	1.57888
H	-0.898433	1.67145	-1.17023
C	5.93271	0.0273635	-0.318287
C	4.83785	0.0116229	-1.15625
N	3.68201	-0.01987	-0.449467
C	4.05838	-0.0236525	0.822127
N	5.40579	0.00412834	0.953718
H	7.01348	0.0526126	-0.530064
H	4.86122	0.0224261	-2.25815
H	3.38854	-0.0462502	1.69679
H	5.94612	0.00735366	1.85332
