18
  This energy is -1.035 and Call times are: 85961
C	0.879784	0.506088	-0.506218
C	-0.36836	1.05584	-0.48929
C	-1.1908	0.136482	0.230776
C	-0.372635	-0.893915	0.590305
O	0.895456	-0.684773	0.14847
H	1.82787	0.858216	-0.94484
H	-0.678754	2.01277	-0.938778
H	-2.26565	0.238875	0.450583
H	-0.568892	-1.82098	1.15358
C	4.55128	1.10788	0.309568
C	4.95148	0.0855833	1.14377
N	5.152	-1.06111	0.449949
C	4.87724	-0.751375	-0.809889
N	4.51021	0.544865	-0.946423
H	4.30114	2.16105	0.514004
H	5.09913	0.154865	2.23384
H	4.92858	-1.43562	-1.6721
H	4.24491	1.02878	-1.839
