18
  This energy is -0.7376 and Call times are: 28350
C	0.242008	0.628563	-0.912547
C	1.17277	-0.157635	-0.299405
C	0.498044	-0.782379	0.793551
C	-0.785475	-0.322803	0.751816
O	-0.959583	0.539868	-0.283798
H	0.308583	1.28984	-1.79206
H	2.22857	-0.284866	-0.587839
H	0.926688	-1.49031	1.52101
H	-1.65772	-0.5308	1.39305
C	6.29663	0.0634271	-1.0651
C	5.19501	-0.68542	-0.708991
N	4.8955	-0.520888	0.602396
C	5.80784	0.326806	1.05811
N	6.67543	0.708455	0.0910338
H	6.82035	0.179107	-2.02732
H	4.61095	-1.34148	-1.37481
H	5.88661	0.701267	2.09145
H	7.48282	1.36973	0.200996
