18
  This energy is -0.7892 and Call times are: 136513
C	-0.61149	0.674715	0.676196
C	0.70171	0.916164	0.397661
C	1.11646	-0.136514	-0.474102
C	0.0200924	-0.928312	-0.651332
O	-1.04421	-0.447768	0.043901
H	-1.33839	1.21909	1.30111
H	1.31664	1.75173	0.768854
H	2.11689	-0.279401	-0.913206
H	-0.129729	-1.84863	-1.23939
C	6.37446	0.595828	0.655969
C	5.66342	-0.525089	1.02895
N	4.86063	-0.951361	0.0237998
C	5.07283	-0.0981342	-0.968974
N	5.97736	0.853347	-0.63716
H	7.11039	1.20806	1.20106
H	5.71529	-1.03388	2.00532
H	4.59235	-0.123921	-1.96029
H	6.31234	1.63777	-1.24849
