18
  This energy is -1.1745 and Call times are: 58264
C	-0.465037	-0.00131103	1.03448
C	-0.851375	0.872536	0.0610747
C	-0.0484174	0.566814	-1.07994
C	0.757713	-0.466867	-0.703069
O	0.516768	-0.826647	0.585153
H	-0.806715	-0.135648	2.07393
H	-1.62426	1.65402	0.138751
H	-0.0749572	1.06413	-2.06283
H	1.53327	-1.02659	-1.25122
C	5.71422	-0.823808	-0.664841
C	6.31251	-0.0568168	0.312354
N	5.42257	0.793581	0.879212
C	4.27653	0.55506	0.256051
N	4.4004	-0.411849	-0.683807
H	6.11697	-1.60749	-1.32603
H	7.37038	-0.101812	0.618528
H	3.31613	1.05977	0.448737
H	3.64041	-0.777948	-1.30802
