18
  This energy is -0.9348 and Call times are: 73300
C	0.148692	1.01479	0.484248
C	0.893825	0.596549	-0.578873
C	0.418275	-0.711651	-0.89916
C	-0.57548	-0.977349	-0.00348707
O	-0.753565	0.0661053	0.848863
H	0.163185	1.95266	1.06343
H	1.69771	1.1534	-1.0866
H	0.780135	-1.37076	-1.70459
H	-1.22267	-1.85971	0.130045
C	5.14004	0.329582	1.12822
C	4.53344	0.944109	0.0532575
N	4.81622	0.296664	-1.10319
C	5.59528	-0.71567	-0.747009
N	5.81992	-0.739179	0.588123
H	5.13615	0.569186	2.20344
H	3.89681	1.84305	0.091402
H	6.02894	-1.46968	-1.42351
H	6.40124	-1.43835	1.11203
