18
  This energy is -0.6562 and Call times are: 186650
C	-0.85268	0.720361	-0.201044
C	0.317747	0.760603	-0.900226
C	1.12867	-0.286714	-0.365768
C	0.382202	-0.874503	0.612834
O	-0.830706	-0.272164	0.727085
H	-1.76557	1.33473	-0.267635
H	0.58341	1.45786	-1.711
H	2.14808	-0.562935	-0.679768
H	0.59763	-1.71738	1.28989
C	6.89925	-0.156938	-0.933548
C	7.29453	0.0847063	0.365107
N	6.22383	0.214856	1.18558
C	5.16833	0.0545624	0.398909
N	5.52306	-0.172181	-0.888079
H	7.48049	-0.313894	-1.85608
H	8.33311	0.167472	0.724763
H	4.11299	0.0934702	0.713506
H	4.87352	-0.329601	-1.69713
