18
  This energy is -1.3993 and Call times are: 165246
C	-0.296252	0.0874564	1.09132
C	-1.0747	0.57288	0.0819867
C	-0.375788	0.276575	-1.12791
C	0.768053	-0.363759	-0.751116
O	0.833042	-0.487859	0.600693
H	-0.432771	0.0887917	2.18522
H	-2.04386	1.08794	0.179655
H	-0.695317	0.516221	-2.15483
H	1.604	-0.774703	-1.34067
C	4.71617	-1.09683	0.286529
C	4.46941	-0.0535439	1.1536
N	4.12717	1.07132	0.479756
C	4.16147	0.727173	-0.800484
N	4.51136	-0.570025	-0.969146
H	5.01312	-2.142	0.46813
H	4.5322	-0.0923176	2.25333
H	3.93924	1.38591	-1.65542
H	4.60816	-1.07774	-1.88244
