18
  This energy is -1.6382 and Call times are: 179137
C	0.431511	-0.208198	-1.02803
C	0.923626	0.768908	-0.213503
C	0.131518	0.723558	0.974195
C	-0.774718	-0.277258	0.780602
O	-0.60599	-0.857153	-0.43688
H	0.728186	-0.536482	-2.03772
H	1.76048	1.45298	-0.427561
H	0.232111	1.36548	1.86409
H	-1.58018	-0.668643	1.42348
C	5.09833	-1.16411	0.14002
C	6.23086	-0.402732	0.337055
N	5.98974	0.906467	0.0833474
C	4.71248	0.957089	-0.269737
N	4.13093	-0.265632	-0.251204
H	4.91835	-2.24564	0.246951
H	7.21764	-0.774607	0.657732
H	4.15288	1.8635	-0.551696
H	3.13319	-0.487021	-0.489462
