18
  This energy is -1.0774 and Call times are: 206763
C	0.577154	0.138428	0.966505
C	1.1846	-0.213012	-0.203055
C	0.143012	-0.287838	-1.17753
C	-1.00899	0.0244835	-0.517439
O	-0.762475	0.287648	0.792899
H	0.981701	0.31124	1.97731
H	2.25844	-0.400729	-0.363464
H	0.248698	-0.545105	-2.24371
H	-2.05371	0.0931826	-0.862523
C	5.61861	0.983996	-0.634647
C	6.40626	-0.145567	-0.704266
N	5.98436	-1.09016	0.171101
C	4.93896	-0.54865	0.781453
N	4.67821	0.701326	0.33072
H	5.65939	1.93718	-1.18538
H	7.2714	-0.295888	-1.37044
H	4.32817	-1.02362	1.56604
H	3.90667	1.3345	0.654882
