18
  This energy is -1.19 and Call times are: 81362
C	0.773261	0.808807	-0.185202
C	-0.450568	1.07792	0.353493
C	-1.12879	-0.176811	0.429486
C	-0.259542	-1.10191	-0.0694784
O	0.907057	-0.517527	-0.44968
H	1.62589	1.46447	-0.426847
H	-0.836961	2.06136	0.665995
H	-2.14559	-0.359644	0.812623
H	-0.350596	-2.19209	-0.205387
C	4.77457	0.995716	0.0497471
C	6.13049	0.858872	0.259233
N	6.51815	-0.432466	0.122586
C	5.40695	-1.09422	-0.170558
N	4.32833	-0.27746	-0.226093
H	4.11753	1.87953	0.0765479
H	6.83601	1.66878	0.506527
H	5.32657	-2.17773	-0.354312
H	3.34036	-0.560206	-0.43876
