18
  This energy is -0.9657 and Call times are: 94632
C	0.287818	0.745544	-0.804814
C	1.10945	0.44753	0.242313
C	0.407438	-0.516835	1.02799
C	-0.781219	-0.723001	0.391622
O	-0.871181	0.0398029	-0.72956
H	0.410488	1.43316	-1.65768
H	2.10956	0.86493	0.441475
H	0.755022	-0.995807	1.95743
H	-1.63534	-1.3772	0.631947
C	5.57946	1.03752	0.542324
C	6.62564	0.641862	-0.263969
N	6.43865	-0.619309	-0.723308
C	5.28087	-1.00458	-0.203951
N	4.72345	-0.0408263	0.566797
H	5.38987	1.97874	1.08241
H	7.51203	1.24381	-0.522494
H	4.7951	-1.98195	-0.355631
H	3.81271	-0.103177	1.0844
