18
  This energy is -1.1833 and Call times are: 10230
C	-0.673638	-0.432328	0.803558
C	-0.260284	0.8674	0.818387
C	0.560353	1.02993	-0.339307
C	0.576034	-0.184819	-0.959389
O	-0.172336	-1.08968	-0.275146
H	-1.3169	-1.00285	1.49346
H	-0.508372	1.63471	1.56924
H	1.07504	1.94832	-0.66452
H	1.0746	-0.529193	-1.8803
C	4.34531	-0.227108	-0.77654
C	5.69632	-0.135212	-1.03627
N	6.39345	0.139089	0.093008
C	5.4784	0.217065	1.04968
N	4.22795	0.00374797	0.57591
H	3.4877	-0.433561	-1.43641
H	6.18054	-0.261918	-2.01828
H	5.66932	0.427837	2.11427
H	3.3385	0.0125419	1.13275
