18
  This energy is -0.8449 and Call times are: 115533
C	-1.00638	-0.288297	0.436455
C	-0.696507	0.997183	0.101945
C	0.637775	0.958161	-0.406275
C	1.02548	-0.347719	-0.337466
O	0.0337311	-1.12299	0.174782
H	-1.92048	-0.732584	0.863398
H	-1.3427	1.88393	0.202947
H	1.23179	1.80864	-0.777658
H	1.9679	-0.846302	-0.61766
C	5.73247	0.342117	1.10182
C	6.25626	0.873634	-0.0576134
N	5.76946	0.237037	-1.15045
C	4.94681	-0.685897	-0.670801
N	4.89	-0.662923	0.681913
H	5.89423	0.599368	2.16068
H	6.97669	1.70505	-0.125175
H	4.36084	-1.40484	-1.26578
H	4.31394	-1.29105	1.29418
