18
  This energy is -1.0889 and Call times are: 15742
C	0.49307	-0.988927	0.255553
C	-0.856358	-0.863868	0.101347
C	-1.08851	0.510443	-0.210888
C	0.13954	1.10389	-0.219922
O	1.11698	0.202979	0.0629108
H	1.12349	-1.85983	0.499185
H	-1.61243	-1.65958	0.197798
H	-2.06037	0.992148	-0.404657
H	0.44694	2.14521	-0.410734
C	5.09241	-1.10954	0.00465356
C	5.33017	-0.151764	-0.958298
N	4.72399	1.01868	-0.643459
C	4.1125	0.787889	0.510422
N	4.30448	-0.48088	0.942811
H	5.41732	-2.159	0.0859913
H	5.92824	-0.284304	-1.87459
H	3.51071	1.51274	1.08197
H	3.92534	-0.904902	1.82469
