18
  This energy is -0.9598 and Call times are: 29903
C	-0.755191	-0.503344	0.680244
C	-0.446068	0.820947	0.785466
C	0.528223	1.07669	-0.227189
C	0.728468	-0.113901	-0.861836
O	-0.0471832	-1.08985	-0.32063
H	-1.45281	-1.13878	1.25015
H	-0.862371	1.54507	1.5041
H	1.01752	2.03852	-0.449813
H	1.38648	-0.393503	-1.70094
C	6.13477	0.307615	0.46873
C	5.03214	-0.17456	1.14167
N	4.01039	-0.426824	0.287909
C	4.47739	-0.102381	-0.910121
N	5.75391	0.345859	-0.854021
H	7.13031	0.615953	0.825624
H	4.95554	-0.344942	2.22792
H	3.92685	-0.173537	-1.862
H	6.34155	0.662244	-1.66386
