18
  This energy is -1.707 and Call times are: 91352
C	0.616759	0.162345	0.937898
C	-0.505525	-0.612721	0.926771
C	-0.995036	-0.572727	-0.414458
C	-0.128671	0.223247	-1.10454
O	0.861802	0.680826	-0.294232
H	1.3191	0.420334	1.74747
H	-0.944617	-1.15791	1.77769
H	-1.88912	-1.08075	-0.810206
H	-0.107437	0.536883	-2.16115
C	3.66217	-0.339322	-0.990297
C	4.40032	0.80987	-0.801538
N	4.87635	0.882297	0.465214
C	4.43519	-0.217781	1.06005
N	3.6982	-0.987148	0.224286
H	3.13148	-0.728968	-1.87352
H	4.59794	1.58804	-1.55668
H	4.62244	-0.509184	2.10612
H	3.24129	-1.90271	0.457161
