18
  This energy is -1.2783 and Call times are: 6298
C	0.132511	-1.09574	-0.26116
C	-0.693843	-0.271411	-0.966854
C	-0.593007	1.00994	-0.343883
C	0.286064	0.855515	0.687505
O	0.739063	-0.42415	0.752782
H	0.372619	-2.16523	-0.378542
H	-1.31236	-0.538841	-1.83864
H	-1.1178	1.93351	-0.636624
H	0.666476	1.56889	1.43693
C	4.64989	0.358472	1.11987
C	5.44492	0.786467	0.077811
N	5.11284	0.162428	-1.07839
C	4.11558	-0.649615	-0.754845
N	3.79938	-0.568122	0.559294
H	4.62983	0.638365	2.18513
H	6.2522	1.53436	0.139526
H	3.58081	-1.32567	-1.44129
H	3.04924	-1.10794	1.05643
