18
  This energy is -0.4532 and Call times are: 190089
C	0.942902	0.384987	-0.499121
C	-0.0780899	-0.180921	-1.2046
C	-1.07101	-0.53387	-0.240417
C	-0.569132	-0.152487	0.969142
O	0.659953	0.410519	0.829901
H	1.91073	0.802871	-0.821509
H	-0.127094	-0.334419	-2.29461
H	-2.04293	-1.01543	-0.434232
H	-0.98286	-0.225697	1.98832
C	5.2302	0.608842	-0.271834
C	5.93583	-0.237017	-1.10114
N	7.00271	-0.772478	-0.459621
C	6.95912	-0.260749	0.763023
N	5.90872	0.578111	0.926021
H	4.32347	1.21041	-0.443585
H	5.69423	-0.470527	-2.15088
H	7.67148	-0.466582	1.57813
H	5.65881	1.10475	1.79864
