18
  This energy is -1.4346 and Call times are: 173668
C	0.85895	0.734566	0.0949675
C	-0.155962	0.909156	-0.799375
C	-1.03062	-0.205827	-0.620762
C	-0.472989	-0.963339	0.366961
O	0.681477	-0.403935	0.815612
H	1.75354	1.34069	0.313102
H	-0.276578	1.73978	-1.51325
H	-1.96423	-0.411574	-1.16862
H	-0.795404	-1.90861	0.833618
C	4.85895	0.20709	-1.12923
C	5.38698	0.847552	-0.0282557
N	4.86322	0.355932	1.12087
C	4.01349	-0.585937	0.734257
N	3.97489	-0.713976	-0.613224
H	5.04358	0.337238	-2.20742
H	6.13649	1.65556	-0.0424841
H	3.39399	-1.2121	1.39635
H	3.38407	-1.38672	-1.1606
