18
  This energy is -1.1235 and Call times are: 39081
C	-0.792061	-0.258292	-0.769627
C	0.541604	-0.29654	-1.05291
C	1.20813	0.0873697	0.150618
C	0.222925	0.326329	1.06312
O	-1.0049	0.12013	0.518204
H	-1.67762	-0.474947	-1.38938
H	1.00912	-0.567879	-2.01307
H	2.29517	0.172872	0.309131
H	0.264764	0.643846	2.11795
C	4.81421	0.408933	-1.03394
C	5.32077	1.15054	0.01227
N	5.66987	0.354175	1.05171
C	5.38098	-0.876795	0.651866
N	4.86254	-0.896667	-0.5989
H	4.43539	0.7079	-2.02422
H	5.44062	2.24596	0.0357097
H	5.52902	-1.79983	1.23524
H	4.55583	-1.74501	-1.13509
