18
  This energy is -1.3235 and Call times are: 79259
C	0.780826	0.706538	-0.421326
C	-0.478036	1.11896	-0.0964415
C	-1.15478	-0.039544	0.393467
C	-0.24972	-1.05764	0.324712
O	0.937756	-0.619929	-0.170587
H	1.64531	1.25226	-0.833769
H	-0.888862	2.13687	-0.192179
H	-2.19463	-0.0984488	0.753096
H	-0.326857	-2.12386	0.593928
C	4.76786	-0.673186	-0.86323
C	6.05773	-0.199227	-0.750391
N	6.20788	0.546637	0.371061
C	5.01569	0.535433	0.951731
N	4.11321	-0.186641	0.246229
H	4.28556	-1.30132	-1.62898
H	6.88271	-0.382087	-1.45807
H	4.74864	1.03942	1.89455
H	3.10659	-0.345566	0.496674
