18
  This energy is -0.7598 and Call times are: 135652
C	0.339333	0.933589	0.547417
C	1.161	-0.137214	0.350908
C	0.38509	-1.09925	-0.365032
C	-0.842231	-0.531404	-0.542823
O	-0.887951	0.710124	0.00811143
H	0.506371	1.90099	1.0489
H	2.20842	-0.239382	0.677366
H	0.711303	-2.09562	-0.704036
H	-1.7548	-0.902579	-1.0375
C	6.12015	-0.91933	-0.730445
C	7.26237	-0.220539	-0.401526
N	6.98872	0.780859	0.469582
C	5.68171	0.703601	0.680274
N	5.11241	-0.305442	-0.020668
H	5.95852	-1.78127	-1.39713
H	8.27901	-0.420988	-0.777159
H	5.09077	1.36099	1.33819
H	4.09684	-0.569774	-0.022994
