18
  This energy is -1.6102 and Call times are: 134687
C	0.329531	1.08038	-0.102889
C	-0.381096	0.632672	0.971792
C	-0.603567	-0.759228	0.741059
C	-0.00924952	-1.03922	-0.454251
O	0.565511	0.072683	-0.983724
H	0.721708	2.07924	-0.355338
H	-0.715117	1.22333	1.83992
H	-1.14437	-1.46233	1.39472
H	0.0733801	-1.97705	-1.02774
C	3.77708	1.08772	-0.152008
C	3.77421	0.0624205	-1.07391
N	4.34303	-1.0562	-0.562406
C	4.69743	-0.726126	0.672126
N	4.37769	0.556145	0.967317
H	3.40659	2.12346	-0.211292
H	3.37189	0.109784	-2.09897
H	5.19419	-1.38498	1.40245
H	4.55377	1.05109	1.87577
