18
  This energy is -1.515 and Call times are: 112426
C	0.667837	0.275461	-0.874366
C	0.598823	-0.993649	-0.379421
C	-0.334705	-0.94198	0.700382
C	-0.753747	0.354143	0.769967
O	-0.151689	1.11167	-0.184334
H	1.25361	0.706196	-1.70297
H	1.15001	-1.87752	-0.738676
H	-0.651229	-1.77783	1.3448
H	-1.46688	0.856771	1.4438
C	4.10872	-0.740872	0.894211
C	4.02382	-1.02874	-0.451548
N	4.30897	0.0620301	-1.20349
C	4.56977	1.02293	-0.32755
N	4.46239	0.588764	0.950558
H	3.94786	-1.36722	1.78604
H	3.76193	-2.00395	-0.893405
H	4.84454	2.06263	-0.567877
H	4.61875	1.1568	1.81897
