18
  This energy is -0.9152 and Call times are: 122919
C	-0.105132	0.017977	-1.12917
C	0.78844	0.806828	-0.466133
C	0.624675	0.503362	0.919944
C	-0.354514	-0.444143	0.981559
O	-0.81158	-0.752468	-0.260632
H	-0.331903	-0.0867891	-2.20288
H	1.49229	1.52988	-0.908712
H	1.17631	0.944349	1.76571
H	-0.809148	-0.971152	1.83644
C	4.56751	0.149875	-0.544612
C	4.82693	0.320605	0.798779
N	6.12677	0.0624368	1.0821
C	6.67167	-0.267201	-0.0811046
N	5.77241	-0.229472	-1.09279
H	3.64164	0.267555	-1.12979
H	4.09947	0.625443	1.56867
H	7.72478	-0.544933	-0.248573
H	5.95775	-0.44763	-2.1024
