18
  This energy is -0.6566 and Call times are: 108742
C	0.350828	0.654778	-0.85708
C	-0.955567	0.295792	-0.69949
C	-0.998866	-0.516934	0.474273
C	0.284892	-0.582847	0.930336
O	1.12247	0.127006	0.129347
H	0.852166	1.27351	-1.61937
H	-1.80366	0.575266	-1.34504
H	-1.8872	-0.992883	0.919726
H	0.725985	-1.09494	1.80122
C	6.70611	-0.32996	-0.513781
C	6.41225	0.911647	0.0089108
N	5.15932	0.940688	0.524488
C	4.67771	-0.278267	0.322415
N	5.57229	-1.08169	-0.300363
H	7.61162	-0.718814	-1.00609
H	7.08185	1.78702	0.0232487
H	3.67612	-0.636003	0.610616
H	5.42938	-2.08591	-0.569385
