18
  This energy is -1.2239 and Call times are: 119514
C	0.2014	-0.867022	0.702931
C	1.18878	-0.0287564	0.275425
C	0.552363	0.919661	-0.582243
C	-0.767743	0.577237	-0.603132
O	-0.999974	-0.511664	0.176212
H	0.224366	-1.74163	1.37358
H	2.25802	-0.0737671	0.537725
H	1.03005	1.7562	-1.11714
H	-1.63029	1.02225	-1.12584
C	4.92076	-0.950578	-0.67035
C	5.47003	-0.921259	0.594006
N	5.52754	0.345325	1.07251
C	5.01591	1.0989	0.108671
N	4.63524	0.364287	-0.963258
H	4.71958	-1.7862	-1.35941
H	5.82584	-1.79132	1.16953
H	4.8966	2.194	0.135739
H	4.20463	0.727208	-1.84877
