18
  This energy is -2.7609 and Call times are: 105466
C	-0.208892	-0.947076	-0.588057
C	0.177177	0.215239	-1.18835
C	0.340873	1.1644	-0.133639
C	0.0403855	0.498319	1.01806
O	-0.297526	-0.792355	0.759243
H	-0.447678	-1.94004	-1.00309
H	0.331231	0.386992	-2.26578
H	0.64708	2.2184	-0.23073
H	0.0293664	0.82602	2.07055
C	4.05258	-0.991354	-0.449585
C	5.36877	-0.755596	-0.113117
N	5.53066	0.496904	0.378358
C	4.3195	1.03611	0.346907
N	3.39371	0.178613	-0.144206
H	3.55478	-1.87928	-0.870682
H	6.20448	-1.46681	-0.216179
H	4.05457	2.05525	0.67155
H	2.36921	0.368787	-0.26864
