18
  This energy is -0.74 and Call times are: 907
C	-0.994862	0.518623	0.166376
C	0.137516	0.8786	0.836085
C	1.16575	0.00806825	0.361723
C	0.570947	-0.80703	-0.555988
O	-0.748493	-0.509231	-0.687925
H	-2.02443	0.910477	0.207598
H	0.238593	1.67706	1.58864
H	2.22257	-0.00262672	0.673364
H	0.972072	-1.62644	-1.17479
C	6.04054	1.1241	-0.0743525
C	5.12346	0.593937	0.808286
N	4.97201	-0.738637	0.613813
C	5.792	-1.03404	-0.385671
N	6.45892	0.0553345	-0.835198
H	6.41262	2.15201	-0.210344
H	4.56837	1.14908	1.58194
H	5.9429	-2.03216	-0.82751
H	7.16095	0.0809246	-1.61479
