18
  This energy is -0.6183 and Call times are: 192491
C	0.260034	-1.10087	0.0828364
C	-1.01782	-0.64074	0.208274
C	-0.940949	0.776177	0.0453139
C	0.377097	1.05682	-0.165321
O	1.12496	-0.0777842	-0.145641
H	0.678813	-2.11928	0.135068
H	-1.92369	-1.23908	0.39666
H	-1.77536	1.49485	0.0822304
H	0.90284	2.00991	-0.339832
C	6.72632	0.103347	-0.718571
C	6.66927	0.454194	0.613644
N	5.4445	0.19844	1.13427
C	4.74441	-0.309138	0.128859
N	5.47295	-0.386942	-1.00989
H	7.5429	0.165792	-1.45535
H	7.4899	0.887284	1.20849
H	3.69431	-0.640334	0.171711
H	5.14543	-0.751329	-1.93791
