18
  This energy is -2.0535 and Call times are: 44634
C	-0.231765	-0.987768	0.506952
C	0.390451	-0.916938	-0.704742
C	0.503826	0.4748	-1.00529
C	-0.0591168	1.13158	0.0492718
O	-0.513601	0.253929	0.982107
H	-0.526251	-1.8494	1.12834
H	0.735022	-1.76015	-1.32471
H	0.953777	0.925195	-1.90462
H	-0.195853	2.20641	0.25247
C	3.69249	1.09647	-0.373882
C	3.93794	0.696856	0.922732
N	4.13473	-0.642148	0.992406
C	4.01182	-1.07158	-0.256235
N	3.74499	-0.0613208	-1.11749
H	3.49089	2.08968	-0.805651
H	3.97656	1.35071	1.8092
H	4.10765	-2.11558	-0.595519
H	3.60482	-0.144217	-2.15419
