18
  This energy is -1.5356 and Call times are: 99514
C	0.450934	0.151047	1.02968
C	-0.169924	-1.008	0.66704
C	-0.598113	-0.816641	-0.682091
C	-0.201115	0.442456	-1.02479
O	0.441099	1.04793	0.00864376
H	0.934	0.457839	1.9719
H	-0.312108	-1.9075	1.28736
H	-1.13829	-1.53826	-1.31578
H	-0.313831	1.01551	-1.95975
C	4.94425	0.362947	0.735258
C	4.42005	1.06106	-0.331981
N	3.46125	0.340942	-0.963365
C	3.3909	-0.79957	-0.29038
N	4.2652	-0.834977	0.743031
H	5.72637	0.625092	1.4654
H	4.71649	2.07144	-0.657717
H	2.71679	-1.64271	-0.511536
H	4.40009	-1.62454	1.42101
