18
  This energy is -1.0283 and Call times are: 53811
C	-0.170936	1.01137	-0.484056
C	-1.19919	0.216663	-0.0699212
C	-0.592076	-0.954115	0.478539
C	0.753582	-0.7715	0.351144
O	1.02876	0.423533	-0.234677
H	-0.161431	2.00368	-0.964139
H	-2.27707	0.433183	-0.143298
H	-1.10565	-1.82583	0.914952
H	1.60783	-1.40821	0.63419
C	4.23294	-0.795423	-0.730926
C	4.9383	-1.04874	0.426419
N	5.33023	0.103756	1.02194
C	4.86977	1.06839	0.237028
N	4.20111	0.577424	-0.833225
H	3.76694	-1.47236	-1.4645
H	5.17143	-2.04245	0.842402
H	4.99383	2.15124	0.399123
H	3.74528	1.13612	-1.59568
