18
  This energy is -1.0105 and Call times are: 44346
C	0.809869	0.286768	0.740458
C	0.286678	-0.971457	0.681157
C	-0.690679	-0.939836	-0.359943
C	-0.678459	0.33492	-0.844939
O	0.232026	1.09769	-0.18448
H	1.58722	0.725583	1.38731
H	0.561434	-1.8352	1.3077
H	-1.32437	-1.77419	-0.701098
H	-1.261	0.817733	-1.64668
C	4.60492	-1.00571	0.13973
C	4.16037	0.138424	-0.48835
N	5.10763	1.10731	-0.466541
C	6.13592	0.566303	0.172639
N	5.8822	-0.706641	0.558422
H	4.11894	-1.97909	0.312607
H	3.1731	0.282161	-0.95685
H	7.09885	1.05795	0.385422
H	6.53425	-1.34428	1.07757
