18
  This energy is -0.9731 and Call times are: 143666
C	0.345182	-0.497338	-0.959117
C	-0.914265	0.00420079	-0.808696
C	-0.965992	0.540943	0.513934
C	0.266411	0.320018	1.05499
O	1.07987	-0.313087	0.169288
H	0.834499	-1.00218	-1.8082
H	-1.72549	-0.00308161	-1.55432
H	-1.82529	1.03256	0.99768
H	0.683757	0.561996	2.04622
C	4.72651	0.928725	0.262626
C	4.40744	-0.111937	-0.583754
N	5.41814	-1.01196	-0.65417
C	6.36064	-0.531468	0.145486
N	5.99152	0.636961	0.721778
H	4.16173	1.82633	0.560747
H	3.46606	-0.229478	-1.14486
H	7.34016	-0.995007	0.345221
H	6.56055	1.21121	1.39088
