18
  This energy is -0.8977 and Call times are: 145203
C	-1.01658	-0.248982	0.437006
C	0.0608131	0.0502801	1.21806
C	1.13955	0.30203	0.316359
C	0.626136	0.134385	-0.936106
O	-0.689394	-0.202338	-0.881245
H	-2.05647	-0.509066	0.694369
H	0.0927072	0.089785	2.31875
H	2.17413	0.575534	0.578928
H	1.08721	0.224585	-1.93337
C	5.82296	-1.04101	-0.443938
C	4.8955	-0.168039	-0.972018
N	4.7711	0.938665	-0.19985
C	5.61818	0.752966	0.803447
N	6.27638	-0.426015	0.701653
H	6.18048	-2.02359	-0.79072
H	4.31387	-0.316915	-1.89635
H	5.79587	1.44842	1.63951
H	6.99516	-0.800308	1.36838
