18
  This energy is -2.0795 and Call times are: 143218
C	-0.317699	1.04239	0.314467
C	0.436612	0.813324	-0.7986
C	0.626736	-0.601054	-0.857802
C	-0.0281767	-1.11144	0.224313
O	-0.610701	-0.121911	0.951304
H	-0.706342	1.9752	0.755013
H	0.82062	1.56495	-1.5069
H	1.18746	-1.16408	-1.62113
H	-0.152281	-2.1466	0.582486
C	4.21913	1.14693	-0.147047
C	4.64596	0.112919	-0.953138
N	4.2094	-1.08231	-0.486912
C	3.5144	-0.790889	0.604265
N	3.49064	0.540212	0.851645
H	4.37697	2.23528	-0.211272
H	5.26108	0.207894	-1.86278
H	3.00215	-1.51383	1.25939
H	3.00904	1.01887	1.65177
