18
  This energy is -0.6428 and Call times are: 167898
C	-0.414307	-0.75058	0.742549
C	0.921799	-0.626036	0.49825
C	1.04568	0.406616	-0.480729
C	-0.225657	0.821951	-0.748248
O	-1.12996	0.126018	-0.0100625
H	-0.974854	-1.4161	1.4194
H	1.73823	-1.20343	0.96101
H	1.97726	0.789064	-0.927923
H	-0.613833	1.59327	-1.43355
C	6.95016	-0.643023	-0.639438
C	7.19249	-0.0688817	0.590514
N	6.10443	0.603076	1.03898
C	5.19058	0.446395	0.0908558
N	5.65207	-0.297399	-0.942287
H	7.58829	-1.25275	-1.29864
H	8.13292	-0.127459	1.16235
H	4.1673	0.855048	0.102355
H	5.12203	-0.560641	-1.8089
