18
  This energy is -0.7764 and Call times are: 7353
C	-0.162337	0.818908	-0.767748
C	-0.960049	0.677912	0.329589
C	-0.446421	-0.446946	1.04443
C	0.619821	-0.894034	0.320819
O	0.807763	-0.132648	-0.789127
H	-0.180569	1.54579	-1.59634
H	-1.82355	1.30329	0.607746
H	-0.832506	-0.867118	1.98703
H	1.31625	-1.73228	0.486858
C	4.54613	0.15967	-0.167873
C	5.4743	1.12204	0.169014
N	6.71413	0.586754	0.282088
C	6.55573	-0.702788	0.0163604
N	5.2665	-1.01019	-0.261101
H	3.46019	0.222422	-0.342056
H	5.27157	2.19303	0.332511
H	7.35021	-1.46633	0.0109992
H	4.88783	-1.95892	-0.501449
