18
  This energy is -0.5566 and Call times are: 129466
C	-0.827313	0.519361	-0.576384
C	0.0871347	1.20598	0.167064
C	0.951784	0.219408	0.732022
C	0.489383	-0.982997	0.283938
O	-0.596671	-0.818628	-0.516363
H	-1.67933	0.862057	-1.1862
H	0.146807	2.29768	0.303901
H	1.81514	0.394098	1.39398
H	0.840436	-2.01302	0.460209
C	7.03915	-0.533461	0.143774
C	6.46687	-0.144049	-1.0487
N	5.2624	0.442394	-0.844127
C	5.08813	0.416893	0.470257
N	6.13179	-0.161466	1.11047
H	7.99598	-1.03233	0.365477
H	6.90147	-0.275736	-2.053
H	4.21468	0.80799	1.01649
H	6.23088	-0.300095	2.14595
