18
  This energy is -0.7956 and Call times are: 77794
C	-0.337845	-1.07441	0.133839
C	-1.20508	-0.0698645	-0.18108
C	-0.415263	1.11746	-0.262179
C	0.864895	0.733655	0.0103401
O	0.930595	-0.601652	0.254572
H	-0.496656	-2.153	0.29713
H	-2.29194	-0.156299	-0.340296
H	-0.767998	2.13463	-0.496776
H	1.80504	1.3071	0.0607895
C	5.92571	-1.03735	0.180654
C	4.70889	-0.821692	-0.430894
N	4.40875	0.499266	-0.469546
C	5.43546	1.10081	0.115796
N	6.37643	0.217354	0.525281
H	6.48416	-1.96397	0.388078
H	4.04216	-1.59558	-0.844923
H	5.54922	2.18583	0.270771
H	7.27762	0.44484	1.01247
