18
  This energy is -1.1566 and Call times are: 209910
C	0.694858	-0.535037	-0.719242
C	0.437477	0.801324	-0.810174
C	-0.468497	1.09827	0.253383
C	-0.684767	-0.0828457	0.90035
O	0.0178158	-1.09097	0.319776
H	1.33262	-1.19961	-1.32492
H	0.844745	1.50717	-1.5518
H	-0.903326	2.08012	0.500324
H	-1.30758	-0.334254	1.77451
C	5.28098	0.77612	-0.564804
C	4.84598	0.853483	0.741311
N	4.07666	-0.214425	1.06417
C	4.03456	-0.951486	-0.0374584
N	4.74519	-0.396815	-1.04787
H	5.91281	1.45025	-1.1647
H	5.07345	1.66072	1.45648
H	3.49811	-1.90631	-0.158956
H	4.86517	-0.786103	-2.01499
