18
  This energy is -1.1984 and Call times are: 33080
C	-1.00109	-0.532955	-0.0129857
C	-0.83709	0.699762	0.547267
C	0.540963	1.03021	0.368677
C	1.09742	-0.0297528	-0.284944
O	0.170071	-0.993555	-0.526045
H	-1.88841	-1.17994	-0.109575
H	-1.60908	1.31469	1.03715
H	1.04986	1.95228	0.692566
H	2.12752	-0.21696	-0.630024
C	5.20241	0.677543	-0.941799
C	6.22243	-0.23576	-0.778782
N	6.14762	-0.840979	0.431435
C	5.08523	-0.305174	1.01698
N	4.48097	0.615872	0.229487
H	4.94737	1.34475	-1.78045
H	7.01101	-0.468846	-1.51272
H	4.70532	-0.551011	2.0217
H	3.62583	1.17624	0.4661
