18
  This energy is -0.7857 and Call times are: 47364
C	-0.0958616	-1.11961	0.153919
C	-0.737512	-0.463443	-0.855094
C	-0.374159	0.911338	-0.720665
C	0.457455	0.97392	0.358629
O	0.638455	-0.257235	0.904989
H	-0.0806221	-2.18403	0.440313
H	-1.40021	-0.9034	-1.61756
H	-0.699127	1.74923	-1.35818
H	0.978265	1.82237	0.832068
C	4.33627	-0.157654	0.0772847
C	5.10273	-0.199498	-1.06811
N	6.40973	0.0261397	-0.78996
C	6.45392	0.207274	0.522998
N	5.22922	0.10624	1.09177
H	3.25467	-0.292494	0.236928
H	4.73608	-0.388456	-2.09022
H	7.35684	0.416885	1.11885
H	5.00301	0.209298	2.11131
