18
  This energy is -0.9054 and Call times are: 174276
C	0.707584	0.835953	-0.294804
C	-0.111512	0.220684	-1.1953
C	-0.838009	-0.761671	-0.455508
C	-0.398733	-0.659985	0.831764
O	0.545328	0.310699	0.948094
H	1.44194	1.64981	-0.411469
H	-0.195676	0.436909	-2.27246
H	-1.59745	-1.45854	-0.845025
H	-0.675227	-1.21298	1.74445
C	4.27526	0.227594	-0.808144
C	5.30481	1.05846	-0.419767
N	6.06891	0.475818	0.535844
C	5.51549	-0.711981	0.739527
N	4.43094	-0.909252	-0.0468738
H	3.4697	0.360439	-1.54771
H	5.50997	2.06788	-0.811961
H	5.86397	-1.47623	1.45277
H	3.82425	-1.76515	-0.0719064
