18
  This energy is -0.7664 and Call times are: 71616
C	-0.34262	0.612745	0.890818
C	-1.13831	-0.323703	0.298937
C	-0.366826	-0.872872	-0.770339
C	0.832196	-0.223534	-0.737484
O	0.864427	0.687216	0.270736
H	-0.516451	1.2833	1.74837
H	-2.16547	-0.600029	0.586469
H	-0.676905	-1.65965	-1.47669
H	1.7318	-0.317096	-1.36772
C	5.97826	0.35013	0.810442
C	5.44394	1.11178	-0.207175
N	4.57712	0.387687	-0.956057
C	4.5737	-0.818581	-0.405121
N	5.40241	-0.892014	0.66326
H	6.70334	0.595941	1.60251
H	5.66837	2.1708	-0.414435
H	3.98288	-1.68479	-0.744014
H	5.57364	-1.73464	1.26486
