18
  This energy is -1.0519 and Call times are: 155600
C	0.0742906	0.439445	-1.04296
C	1.05179	0.610035	-0.107139
C	0.601153	-0.0802725	1.05927
C	-0.611946	-0.611761	0.733261
O	-0.949319	-0.304253	-0.546829
H	-0.0107257	0.791966	-2.084
H	1.99551	1.16619	-0.226262
H	1.126	-0.165755	2.02432
H	-1.32398	-1.21973	1.31517
C	4.39308	-0.423026	-0.619378
C	4.77771	-0.802725	0.649097
N	5.8672	-0.108112	1.05779
C	6.15736	0.699435	0.0466971
N	5.29764	0.547432	-0.988375
H	3.56722	-0.763382	-1.26409
H	4.28861	-1.56543	1.27672
H	6.98847	1.42211	0.0116336
H	5.31655	1.0694	-1.89857
