18
  This energy is -1.2404 and Call times are: 91191
C	0.247874	-0.533914	0.969482
C	0.930179	0.569396	0.548127
C	0.334498	0.946767	-0.693998
C	-0.659236	0.04075	-0.922035
O	-0.726329	-0.870762	0.0837766
H	0.357376	-1.162	1.8688
H	1.76882	1.06753	1.0606
H	0.619461	1.79567	-1.33607
H	-1.37857	-0.0622612	-1.75101
C	5.25659	-0.0531774	1.14736
C	5.68069	-0.921097	0.163483
N	5.19474	-0.560295	-1.04903
C	4.47193	0.527321	-0.818247
N	4.47783	0.873489	0.490845
H	5.4475	-0.0301581	2.23205
H	6.3286	-1.80117	0.306798
H	3.91747	1.10962	-1.57173
H	3.98337	1.69187	0.92331
