18
  This energy is -0.9293 and Call times are: 17059
C	-0.7805	-0.773455	0.281048
C	0.138417	-0.305295	1.17368
C	0.934354	0.639208	0.456382
C	0.431559	0.664843	-0.811259
O	-0.616113	-0.191773	-0.936176
H	-1.59288	-1.51105	0.387063
H	0.245061	-0.595917	2.23116
H	1.78082	1.22649	0.847138
H	0.726647	1.24143	-1.70329
C	4.83894	-0.957241	-0.392421
C	4.44742	0.355131	-0.55223
N	5.33132	1.20284	0.0279682
C	6.26762	0.419342	0.545748
N	6.0161	-0.89174	0.319047
H	4.37853	-1.90164	-0.72359
H	3.543	0.705516	-1.07578
H	7.15895	0.753453	1.10084
H	6.60552	-1.70366	0.62665
