18
  This energy is -0.5937 and Call times are: 150493
C	-0.289912	0.476118	0.987757
C	-1.17041	0.343474	-0.0454479
C	-0.444667	-0.292689	-1.0984
C	0.815248	-0.492637	-0.615695
O	0.927568	-0.0291671	0.656937
H	-0.405414	0.906453	1.99608
H	-2.22515	0.66169	-0.06422
H	-0.824841	-0.565783	-2.09589
H	1.70954	-0.94746	-1.07245
C	6.43564	-0.46696	0.307404
C	5.21457	-0.695737	0.905564
N	4.23115	0.00754334	0.293355
C	4.83982	0.670096	-0.680898
N	6.16975	0.417531	-0.713952
H	7.44143	-0.857936	0.52888
H	5.02555	-1.35565	1.76791
H	4.35924	1.35377	-1.39914
H	6.86573	0.818999	-1.38901
