18
  This energy is -0.4734 and Call times are: 144627
C	-0.646245	0.67867	-0.638886
C	0.712492	0.790542	-0.597734
C	1.16106	-0.222196	0.30408
C	0.0368339	-0.863536	0.734404
O	-1.07602	-0.326413	0.168651
H	-1.41003	1.2462	-1.19548
H	1.3363	1.51368	-1.1473
H	2.20181	-0.440387	0.592746
H	-0.102813	-1.70513	1.4326
C	5.52818	0.0526804	-0.0956463
C	6.25332	-0.243446	1.03908
N	7.58496	-0.215441	0.789145
C	7.68554	0.0968726	-0.495755
N	6.4731	0.268742	-1.07372
H	4.44279	0.122618	-0.27053
H	5.83952	-0.476805	2.03365
H	8.62269	0.212646	-1.06372
H	6.28813	0.518922	-2.07594
