18
  This energy is -1.3982 and Call times are: 118653
C	-0.524203	-1.002	-0.087278
C	-0.605567	-0.230344	1.03447
C	0.174894	0.935103	0.764776
C	0.664289	0.772757	-0.497963
O	0.247344	-0.404757	-1.03334
H	-0.963335	-1.98272	-0.333453
H	-1.1596	-0.458909	1.95907
H	0.346294	1.78981	1.43871
H	1.31109	1.41364	-1.11938
C	5.10695	1.1263	0.149404
C	5.7389	0.0195912	0.675701
N	5.11603	-1.12369	0.299603
C	4.10153	-0.727752	-0.457135
N	4.05309	0.620064	-0.578117
H	5.32532	2.20239	0.238146
H	6.63311	0.0255686	1.32006
H	3.36358	-1.38298	-0.947371
H	3.34722	1.1739	-1.12242
