18
  This energy is -0.9814 and Call times are: 36090
C	0.975844	0.0829232	-0.572061
C	-0.174465	0.678027	-0.999865
C	-1.16911	0.349615	-0.0288158
C	-0.538817	-0.417185	0.90666
O	0.771644	-0.590195	0.590792
H	1.99176	0.0636349	-0.999605
H	-0.309059	1.28716	-1.90812
H	-2.22823	0.653492	-0.0344926
H	-0.906857	-0.893427	1.83024
C	5.7448	0.572319	-0.968843
C	6.31648	0.646584	0.283677
N	5.66289	-0.146644	1.16692
C	4.68944	-0.71086	0.465011
N	4.69656	-0.309506	-0.828224
H	6.00118	1.06805	-1.91861
H	7.18884	1.25831	0.565876
H	3.9433	-1.42527	0.848565
H	4.03048	-0.612373	-1.58046
