18
  This energy is -0.9444 and Call times are: 163132
C	-1.10107	-0.127786	0.240221
C	-0.432161	1.03702	0.477196
C	0.911552	0.810269	0.0492501
C	0.945143	-0.473083	-0.411458
O	-0.275323	-1.06093	-0.302348
H	-2.15148	-0.415418	0.411017
H	-0.843689	1.96302	0.909944
H	1.749	1.5255	0.0842263
H	1.76438	-1.07622	-0.836107
C	5.91975	-1.11672	0.189152
C	6.60092	-0.175321	-0.553082
N	5.94445	1.01023	-0.559569
C	4.86015	0.805082	0.175844
N	4.7995	-0.461845	0.649982
H	6.14539	-2.17116	0.414511
H	7.5543	-0.330302	-1.08403
H	4.07772	1.54815	0.399179
H	4.0432	-0.867893	1.25363
