18
  This energy is -1.4898 and Call times are: 151086
C	-0.123375	-1.11451	-0.170437
C	-0.131104	-0.21371	-1.19458
C	0.0485624	1.06765	-0.58963
C	0.150223	0.836749	0.750789
O	0.0474056	-0.490432	1.02471
H	-0.228468	-2.21183	-0.161128
H	-0.251272	-0.429874	-2.26833
H	0.0953936	2.04249	-1.10108
H	0.295118	1.5223	1.60183
C	3.45027	-0.714587	-0.390403
C	3.88753	0.451556	-0.982061
N	4.88268	1.02221	-0.260576
C	5.0621	0.213156	0.774735
N	4.22236	-0.848611	0.741892
H	2.67032	-1.43455	-0.685157
H	3.50278	0.891387	-1.9166
H	5.79473	0.350854	1.58623
H	4.16952	-1.62584	1.44502
