18
  This energy is -0.8836 and Call times are: 120187
C	-0.626452	0.738729	-0.590117
C	-0.8215	-0.609051	-0.666395
C	0.145625	-1.19412	0.20681
C	0.846295	-0.152212	0.739606
O	0.388168	1.03559	0.263949
H	-1.13633	1.5805	-1.0868
H	-1.57121	-1.13816	-1.27637
H	0.294852	-2.26704	0.408467
H	1.68208	-0.124496	1.4579
C	5.3263	-0.322878	-1.08368
C	4.53819	-1.04004	-0.208636
N	4.36285	-0.367374	0.954673
C	5.03961	0.762794	0.80189
N	5.63828	0.837101	-0.410407
H	5.67556	-0.548371	-2.10384
H	4.09295	-2.03078	-0.395844
H	5.1299	1.57045	1.54605
H	6.22778	1.62772	-0.769105
