18
  This energy is -1.3765 and Call times are: 40215
C	0.0845413	-0.997449	0.533244
C	-0.233809	-0.901035	-0.78953
C	-0.242997	0.495582	-1.08869
C	0.0705494	1.12933	0.0776855
O	0.273839	0.232859	1.0787
H	0.205892	-1.87132	1.19421
H	-0.441349	-1.73022	-1.48485
H	-0.459078	0.964542	-2.06207
H	0.179115	2.19871	0.322402
C	3.73413	-0.487845	-0.105022
C	4.01605	0.825656	0.20543
N	5.35321	1.04272	0.242928
C	5.89875	-0.131654	-0.043174
N	4.96413	-1.08694	-0.261154
H	2.77719	-1.02087	-0.22199
H	3.27858	1.6206	0.403034
H	6.97745	-0.34766	-0.106265
H	5.1425	-2.0924	-0.503016
