18
  This energy is -1.2228 and Call times are: 85929
C	0.420702	-0.437784	-0.957996
C	1.11644	0.453285	-0.194897
C	0.268156	0.767497	0.910456
C	-0.87107	0.0406994	0.725245
O	-0.7952	-0.701119	-0.410959
H	0.677027	-0.950713	-1.89951
H	2.12575	0.849562	-0.390736
H	0.488993	1.45583	1.74203
H	-1.79505	-0.0350352	1.32172
C	4.75788	-0.458014	-0.790301
C	6.05936	-0.0597619	-1.01095
N	6.62185	0.422429	0.123776
C	5.67293	0.323691	1.04488
N	4.52999	-0.201336	0.543255
H	4.00293	-0.891455	-1.46537
H	6.60258	-0.111715	-1.96859
H	5.76177	0.621178	2.10216
H	3.63984	-0.379019	1.06987
