18
  This energy is -1.4594 and Call times are: 131151
C	0.442303	1.02051	-0.222102
C	0.980662	0.177123	0.704853
C	0.156797	-0.989626	0.697097
C	-0.812286	-0.756226	-0.233912
O	-0.653265	0.466636	-0.805168
H	0.741225	2.02811	-0.554717
H	1.86884	0.358431	1.33124
H	0.279198	-1.8928	1.31628
H	-1.65969	-1.37204	-0.577318
C	5.19086	-0.578342	-1.00343
C	6.42117	-0.21015	-0.501521
N	6.29175	0.443632	0.67845
C	4.98611	0.480886	0.907689
N	4.27944	-0.122091	-0.0775113
H	4.90883	-1.11485	-1.9233
H	7.3999	-0.404528	-0.969669
H	4.49372	0.937231	1.78149
H	3.23603	-0.222839	-0.126657
