18
  This energy is -0.8238 and Call times are: 142738
C	1.01907	0.437161	0.238293
C	0.460987	0.519961	-1.0035
C	-0.80413	-0.136168	-0.908142
C	-0.907458	-0.561997	0.38351
O	0.197073	-0.22042	1.0979
H	1.98195	0.801097	0.632848
H	0.896512	0.995385	-1.89703
H	-1.54452	-0.270611	-1.71303
H	-1.70487	-1.111	0.910753
C	4.98434	0.933309	-0.0431163
C	6.06104	0.677457	-0.865554
N	6.66295	-0.490405	-0.533426
C	5.96233	-0.957287	0.491158
N	4.93958	-0.134898	0.824708
H	4.27062	1.77196	-0.0149261
H	6.41434	1.31461	-1.69263
H	6.15488	-1.89644	1.03443
H	4.24489	-0.282826	1.59722
