18
  This energy is -1.0713 and Call times are: 156112
C	0.825613	-0.760322	0.163321
C	0.875921	0.169899	-0.832938
C	-0.325894	0.932917	-0.716482
C	-1.00452	0.401608	0.34066
O	-0.315891	-0.633369	0.889863
H	1.52911	-1.55704	0.455869
H	1.6788	0.305189	-1.57535
H	-0.640097	1.77743	-1.35065
H	-1.97324	0.66655	0.795245
C	5.73283	0.354617	0.926748
C	4.98814	1.14869	0.0805598
N	4.38674	0.407759	-0.88165
C	4.75692	-0.84121	-0.633335
N	5.56894	-0.925677	0.446984
H	6.34731	0.60176	1.80702
H	4.87403	2.24294	0.14709
H	4.46239	-1.7321	-1.21109
H	5.99288	-1.7999	0.843553
