18
  This energy is -1.1621 and Call times are: 17284
C	-0.490597	0.880927	-0.519311
C	0.863595	0.757005	-0.413565
C	1.09053	-0.462811	0.294014
C	-0.145022	-0.976619	0.558197
O	-1.12229	-0.168962	0.0686604
H	-1.11961	1.65862	-0.98275
H	1.6262	1.4546	-0.795518
H	2.06407	-0.899026	0.569752
H	-0.458285	-1.89618	1.07928
C	5.66509	-0.510484	1.02675
C	6.21488	0.643619	0.510105
N	5.67561	0.944231	-0.696267
C	4.79463	-0.0197149	-0.92714
N	4.751	-0.921193	0.0823275
H	5.85336	-1.05056	1.96825
H	6.991	1.26477	0.986196
H	4.1549	-0.113711	-1.81941
H	4.1377	-1.77107	0.135436
