18
  This energy is -0.5036 and Call times are: 68142
C	-0.0679641	0.701779	0.888419
C	1.04273	-0.0474503	0.632726
C	0.749233	-0.790216	-0.55145
C	-0.51491	-0.429311	-0.914855
O	-1.02916	0.481088	-0.0466784
H	-0.295819	1.42048	1.69266
H	1.97518	-0.0743668	1.21917
H	1.40887	-1.50753	-1.06569
H	-1.15114	-0.744091	-1.75828
C	7.17528	-0.655555	-0.435001
C	7.01493	0.707014	-0.572262
N	5.89314	1.1329	0.057591
C	5.35959	0.0387077	0.583596
N	6.0954	-1.06573	0.314532
H	7.95541	-1.33953	-0.805305
H	7.68858	1.39042	-1.11448
H	4.43113	-0.0103903	1.17502
H	5.88361	-2.04745	0.618902
