18
  This energy is -0.8082 and Call times are: 157035
C	-0.717351	-0.554435	0.681476
C	-0.696378	0.806629	0.595228
C	0.325075	1.1227	-0.351794
C	0.838126	-0.0731189	-0.760657
O	0.213247	-1.10805	-0.139809
H	-1.33846	-1.23949	1.28163
H	-1.33604	1.5168	1.14349
H	0.634849	2.12665	-0.683778
H	1.63827	-0.318391	-1.47819
C	4.65468	-0.300922	-0.99858
C	5.31231	0.882878	-0.739185
N	5.82524	0.892204	0.515136
C	5.48711	-0.281347	1.03192
N	4.78029	-1.03698	0.158411
H	4.12389	-0.659683	-1.89474
H	5.42586	1.73042	-1.43462
H	5.73138	-0.638436	2.04536
H	4.40036	-2.00006	0.329854
