18
  This energy is -1.2257 and Call times are: 56036
C	-0.0682763	-0.640553	-0.933505
C	-0.355028	-1.12641	0.308307
C	-0.156165	-0.0366907	1.21002
C	0.234553	1.01887	0.439636
O	0.293588	0.66799	-0.872006
H	-0.0833762	-1.11825	-1.9269
H	-0.674533	-2.14953	0.56372
H	-0.290829	-0.0469289	2.30357
H	0.49615	2.05741	0.70089
C	4.01903	-0.117118	1.01678
C	3.8191	0.851763	0.0563427
N	4.66585	0.685955	-0.988661
C	5.38833	-0.381728	-0.677696
N	5.03637	-0.902126	0.521845
H	3.52579	-0.297517	1.98514
H	3.07905	1.66747	0.0986988
H	6.18817	-0.825186	-1.29238
H	5.45812	-1.74333	0.98635
