18
  This energy is -1.5822 and Call times are: 16835
C	0.903628	0.108182	0.676871
C	0.651768	-1.03163	-0.0286524
C	-0.555571	-0.785563	-0.751079
C	-0.934918	0.482899	-0.423247
O	-0.0552476	1.04365	0.447815
H	1.72038	0.375118	1.36746
H	1.25561	-1.95324	-0.039284
H	-1.07394	-1.47845	-1.4332
H	-1.79806	1.09222	-0.737845
C	4.40225	-1.17681	0.0146163
C	3.88764	-0.362485	-0.971891
N	4.05621	0.94611	-0.662575
C	4.67305	0.943613	0.51136
N	4.90395	-0.312324	0.961802
H	4.44552	-2.27372	0.106578
H	3.39774	-0.695735	-1.90129
H	4.97877	1.83316	1.08536
H	5.37533	-0.577099	1.86122
