18
  This energy is -1.6823 and Call times are: 30327
C	0.552891	0.382205	0.913582
C	-0.213847	1.19458	0.130933
C	-0.736912	0.36045	-0.903839
C	-0.243637	-0.88801	-0.662178
O	0.54604	-0.893083	0.443895
H	1.14602	0.58759	1.81982
H	-0.393107	2.27302	0.268494
H	-1.40236	0.663578	-1.72809
H	-0.378304	-1.84323	-1.19572
C	3.71066	0.367585	-1.07993
C	4.39627	1.08039	-0.11921
N	4.55617	0.349146	1.01049
C	3.97197	-0.81288	0.751593
N	3.44699	-0.85131	-0.496011
H	3.40201	0.632617	-2.10367
H	4.77843	2.1092	-0.22096
H	3.89984	-1.67025	1.44002
H	2.9364	-1.65626	-0.934879
