18
  This energy is -0.7119 and Call times are: 52291
C	0.74484	-0.666876	0.535621
C	-0.46643	-0.345174	1.07386
C	-1.10831	0.498027	0.116202
C	-0.232622	0.617158	-0.922715
O	0.904405	-0.0877865	-0.683479
H	1.57107	-1.29035	0.914942
H	-0.867661	-0.669148	2.0476
H	-2.10617	0.957804	0.199793
H	-0.299508	1.16692	-1.87589
C	4.90276	-0.38734	0.176411
C	5.2877	0.679148	-0.608169
N	6.63263	0.843627	-0.583429
C	7.08035	-0.11717	0.213469
N	6.07603	-0.886154	0.696795
H	3.91004	-0.812444	0.393999
H	4.61909	1.33288	-1.19165
H	8.13404	-0.302811	0.47709
H	6.17271	-1.70612	1.34453
