18
  This energy is -0.6147 and Call times are: 205414
C	-0.571913	-0.879621	-0.430794
C	-0.821559	0.407932	-0.805308
C	0.0865648	1.21627	-0.055624
C	0.810985	0.351317	0.71083
O	0.422122	-0.932808	0.49445
H	-1.02649	-1.83357	-0.744779
H	-1.57011	0.753773	-1.53617
H	0.182107	2.31345	-0.0896597
H	1.61998	0.522079	1.43996
C	6.85295	0.59133	0.356813
C	6.77307	-0.287689	-0.702475
N	5.52016	-0.788578	-0.828365
C	4.82541	-0.222451	0.149107
N	5.58434	0.617883	0.891712
H	7.6947	1.18021	0.754579
H	7.59703	-0.569448	-1.37816
H	3.75783	-0.387916	0.366166
H	5.26685	1.18214	1.71759
