18
  This energy is -0.7195 and Call times are: 98406
C	0.416315	0.418005	0.968687
C	1.21689	0.0582653	-0.0753664
C	0.337992	-0.414612	-1.09715
C	-0.922072	-0.302096	-0.5873
O	-0.892998	0.204657	0.673401
H	0.652881	0.832902	1.96224
H	2.31607	0.119734	-0.121359
H	0.620249	-0.79268	-2.09289
H	-1.9084	-0.545161	-1.01546
C	5.91307	1.06081	0.496984
C	5.11601	0.73177	-0.578918
N	5.22996	-0.582885	-0.887479
C	6.09443	-1.06758	-0.00635058
N	6.53523	-0.115815	0.850053
H	6.07614	2.0171	1.01896
H	4.46075	1.41941	-1.13806
H	6.43967	-2.11212	0.0565899
H	7.22041	-0.24886	1.6337
