18
  This energy is -1.2038 and Call times are: 107096
C	0.323348	-0.611798	0.898638
C	-0.862807	-0.823499	0.259425
C	-0.909019	0.128471	-0.804405
C	0.252976	0.83787	-0.721372
O	1.01759	0.399168	0.312993
H	0.782686	-1.10651	1.77014
H	-1.62842	-1.57467	0.511742
H	-1.71759	0.262146	-1.54091
H	0.648015	1.66773	-1.33008
C	4.3167	0.246967	0.842934
C	5.66671	0.526822	0.860105
N	6.26832	0.1019	-0.277445
C	5.29523	-0.439507	-0.997583
N	4.09941	-0.376679	-0.365388
H	3.52175	0.441001	1.58046
H	6.21742	1.02773	1.67292
H	5.40318	-0.896275	-1.99455
H	3.18161	-0.734808	-0.726832
