18
  This energy is -1.1138 and Call times are: 121105
C	-0.724699	0.862863	-0.129151
C	0.0311586	0.705886	0.99531
C	0.804463	-0.476387	0.784719
C	0.452896	-0.937512	-0.449841
O	-0.479914	-0.131806	-1.02231
H	-1.46416	1.63004	-0.411808
H	0.0429728	1.35729	1.88392
H	1.53506	-0.923894	1.47758
H	0.789415	-1.81535	-1.02552
C	5.81511	0.377292	0.760485
C	4.45308	0.576096	0.841116
N	3.81277	0.00320874	-0.206889
C	4.77391	-0.548899	-0.934904
N	5.99923	-0.351048	-0.393556
H	6.63891	0.692072	1.42065
H	3.92094	1.12264	1.63671
H	4.63592	-1.10965	-1.87339
H	6.91501	-0.688236	-0.779431
