18
  This energy is -1.1528 and Call times are: 153266
C	-0.470932	-0.964215	0.367305
C	0.80286	-0.60254	0.694442
C	1.02989	0.653038	0.0524918
C	-0.125208	0.947789	-0.610261
O	-1.05258	-0.0290016	-0.428978
H	-1.07075	-1.8499	0.633824
H	1.51151	-1.16363	1.32459
H	1.94956	1.25899	0.0859554
H	-0.409141	1.80912	-1.23695
C	6.71135	0.6214	0.871879
C	7.98571	0.0957154	0.843785
N	8.21691	-0.563367	-0.317537
C	7.09026	-0.447001	-1.00727
N	6.15179	0.2588	-0.332948
H	6.18075	1.20829	1.63841
H	8.74248	0.180194	1.64067
H	6.89865	-0.859379	-2.011
H	5.18258	0.486436	-0.664719
