18
  This energy is -0.7604 and Call times are: 143314
C	0.885114	-0.663504	-0.25047
C	-0.286094	-1.16222	0.239357
C	-1.14326	-0.0350572	0.426161
C	-0.420187	1.05294	0.0339963
O	0.820907	0.687618	-0.382221
H	1.82606	-1.15901	-0.540886
H	-0.522687	-2.21792	0.448183
H	-2.17658	-0.0430755	0.80862
H	-0.671899	2.12577	0.00349874
C	6.9555	0.128387	-0.18285
C	6.35187	-0.64822	0.783411
N	5.00163	-0.561655	0.706736
C	4.7685	0.265509	-0.303251
N	5.91443	0.708829	-0.872376
H	8.01682	0.303237	-0.420658
H	6.86643	-1.26944	1.53451
H	3.77765	0.580566	-0.668197
H	5.99457	1.36894	-1.68422
