18
  This energy is -1.2383 and Call times are: 81330
C	0.166458	-0.29978	1.08112
C	-1.07862	-0.209528	0.531568
C	-0.879077	0.188652	-0.825544
C	0.470323	0.306571	-0.9855
O	1.12434	0.0119894	0.168835
H	0.499638	-0.571761	2.09614
H	-2.04102	-0.403854	1.03169
H	-1.656	0.364431	-1.58685
H	1.08115	0.588618	-1.85877
C	4.32675	-0.209195	-0.760763
C	4.38718	-0.604661	0.558744
N	5.53957	-0.191906	1.14026
C	6.19156	0.457154	0.185139
N	5.50179	0.474485	-0.979981
H	3.55642	-0.360844	-1.5335
H	3.61993	-1.18042	1.10158
H	7.17751	0.938983	0.284993
H	5.80444	0.923232	-1.87903
