18
  This energy is -0.956 and Call times are: 52163
C	-0.0698806	-0.299656	1.09166
C	-1.17267	-0.151872	0.30275
C	-0.684257	0.225878	-0.985221
C	0.673886	0.275584	-0.869673
O	1.06647	-0.0425031	0.391956
H	0.0380337	-0.580299	2.15225
H	-2.22456	-0.294554	0.598159
H	-1.28216	0.434311	-1.88697
H	1.46139	0.520542	-1.60117
C	4.70456	-0.799985	-0.511356
C	4.59722	0.57137	-0.60627
N	5.56679	1.18826	0.111986
C	6.27294	0.203352	0.650439
N	5.79286	-1.01463	0.304557
H	4.10356	-1.61127	-0.951989
H	3.83755	1.12672	-1.18014
H	7.15129	0.318048	1.30587
H	6.17658	-1.94518	0.601374
