18
  This energy is -1.5864 and Call times are: 51526
C	-0.773635	0.71932	-0.412877
C	-0.338867	0.776535	0.878664
C	0.617649	-0.275265	1.01618
C	0.682956	-0.882369	-0.203461
O	-0.160109	-0.287889	-1.08825
H	-1.5063	1.3302	-0.965398
H	-0.659564	1.48803	1.65649
H	1.18603	-0.541407	1.92184
H	1.28119	-1.73496	-0.564638
C	5.21444	0.431287	-0.853871
C	5.6045	-0.880931	-0.689288
N	6.39495	-1.02248	0.402343
C	6.49489	0.197284	0.913037
N	5.80079	1.10906	0.191595
H	4.5822	0.914628	-1.61557
H	5.32972	-1.72808	-1.33866
H	7.06364	0.478724	1.8139
H	5.72395	2.13654	0.390713
