18
  This energy is -0.9236 and Call times are: 138995
C	-1.09477	0.285383	0.0802245
C	-0.639029	-0.6099	-0.842349
C	0.77068	-0.704052	-0.632654
C	1.05195	0.142007	0.399551
O	-0.0756098	0.754628	0.847123
H	-2.10725	0.66768	0.289963
H	-1.2357	-1.14984	-1.59504
H	1.48432	-1.3315	-1.19043
H	2.00094	0.3933	0.90106
C	6.73152	0.310451	0.0915602
C	5.79552	0.839522	-0.771657
N	4.58831	0.246259	-0.606765
C	4.77467	-0.647457	0.355089
N	6.05042	-0.64743	0.809029
H	7.79849	0.540141	0.241078
H	5.96965	1.63868	-1.51049
H	4.01105	-1.32786	0.76515
H	6.44544	-1.26032	1.56374
