18
  This energy is -0.7799 and Call times are: 140021
C	-0.749509	-0.722241	0.450561
C	-0.731616	-0.423983	-0.880264
C	0.337042	0.506876	-1.058
C	0.877852	0.695278	0.1799
O	0.226612	-0.0476073	1.11318
H	-1.39784	-1.38983	1.04153
H	-1.40355	-0.819772	-1.65869
H	0.658415	0.976313	-2.00163
H	1.71645	1.32289	0.523566
C	4.9041	0.537538	-0.680214
C	4.77893	0.235508	0.659285
N	5.88934	-0.385546	1.12598
C	6.70029	-0.468485	0.0799809
N	6.15189	0.0740524	-1.0329
H	4.21647	1.03297	-1.38395
H	3.9073	0.454593	1.29734
H	7.70691	-0.916713	0.0735702
H	6.59316	0.130812	-1.98333
