18
  This energy is -1.4652 and Call times are: 212266
C	0.329531	0.977725	-0.471023
C	-0.381096	0.930315	0.69222
C	-0.603567	-0.455264	0.958295
C	-0.00924952	-1.13225	-0.0658413
O	0.565511	-0.272831	-0.947923
H	0.721708	1.82714	-1.05407
H	-0.715117	1.78529	1.30177
H	-1.14437	-0.888176	1.81516
H	0.0733801	-2.21073	-0.278673
C	3.96085	0.700408	-0.777073
C	3.62427	0.520906	0.54793
N	4.46042	-0.359693	1.14951
C	5.3125	-0.7251	0.201319
N	5.05315	-0.113502	-0.978629
H	3.51525	1.32878	-1.56455
H	2.79307	1.01102	1.08061
H	6.14526	-1.43739	0.31697
H	5.58317	-0.235991	-1.87603
