18
  This energy is -0.8775 and Call times are: 184730
C	-0.81113	-0.267302	-0.746337
C	-0.321177	0.999582	-0.62255
C	0.669689	0.936996	0.404283
C	0.697769	-0.36261	0.817333
O	-0.200157	-1.11221	0.125355
H	-1.5845	-0.69067	-1.40808
H	-0.62686	1.88895	-1.19673
H	1.28501	1.76819	0.78454
H	1.30309	-0.873062	1.58433
C	5.11756	1.09751	-0.383773
C	4.43424	0.448513	0.622718
N	4.90705	-0.808733	0.802413
C	5.87999	-0.939202	-0.0892099
N	6.04583	0.182914	-0.828766
H	5.01246	2.11164	-0.800937
H	3.60854	0.864914	1.22245
H	6.50299	-1.83499	-0.243076
H	6.74779	0.328474	-1.59513
