18
  This energy is -1.0212 and Call times are: 197588
C	-1.07023	-0.0165325	-0.375148
C	-0.756749	-0.15561	0.944989
C	0.667841	-0.0829423	1.01833
C	1.09915	0.0941263	-0.263463
O	0.0510615	0.137005	-1.12757
H	-2.03988	-0.00957227	-0.899529
H	-1.45832	-0.295354	1.78306
H	1.29042	-0.155143	1.92457
H	2.11167	0.202196	-0.685797
C	4.91617	0.862348	-0.164479
C	6.13442	0.720205	-0.794395
N	6.78067	-0.390291	-0.363505
C	5.96643	-0.934998	0.530323
N	4.82889	-0.217115	0.68601
H	4.13133	1.62968	-0.258121
H	6.55865	1.39904	-1.55206
H	6.15396	-1.85923	1.10029
H	4.03224	-0.440304	1.33159
