18
  This energy is -1.1394 and Call times are: 10077
C	0.681361	-0.905319	0.0504538
C	-0.556356	-0.953589	-0.520598
C	-1.09789	0.361824	-0.391944
C	-0.143284	1.0978	0.24637
O	0.950064	0.339863	0.524091
H	1.45694	-1.67778	0.180963
H	-1.03954	-1.8278	-0.985765
H	-2.08442	0.710278	-0.737527
H	-0.121187	2.15561	0.555889
C	6.87315	-0.930711	0.543134
C	7.30653	-0.347999	-0.628947
N	6.52671	0.707386	-0.967404
C	5.61303	0.779133	-0.00893782
N	5.77918	-0.186853	0.92533
H	7.25315	-1.79331	1.11328
H	8.16793	-0.670187	-1.23644
H	4.79951	1.5194	0.057613
H	5.18738	-0.33998	1.77832
