18
  This energy is -0.9989 and Call times are: 170024
C	-0.541024	-0.0264201	-0.996492
C	0.111848	-1.11197	-0.490813
C	0.657976	-0.691955	0.760365
C	0.290623	0.613185	0.908814
O	-0.442125	1.03603	-0.154809
H	-1.10657	0.116301	-1.93193
H	0.200014	-2.10853	-0.952553
H	1.25376	-1.29811	1.46159
H	0.48496	1.34032	1.71427
C	4.4082	-0.585269	0.644681
C	4.35322	-0.3403	-0.711089
N	5.43472	0.363869	-1.12465
C	6.15788	0.555022	-0.0295994
N	5.58134	0.00166635	1.06356
H	3.71854	-1.11796	1.31858
H	3.55258	-0.659039	-1.39827
H	7.11764	1.09331	0.0281534
H	5.95651	0.0168528	2.04349
