18
  This energy is -1.1854 and Call times are: 116208
C	-0.514909	-0.454773	0.90247
C	0.816403	-0.623953	0.658829
C	1.08626	0.0878408	-0.549742
C	-0.103971	0.629154	-0.937953
O	-1.09274	0.3079	-0.0626509
H	-1.16138	-0.820711	1.71697
H	1.5362	-1.19291	1.26897
H	2.05688	0.180488	-1.06296
H	-0.374966	1.25361	-1.80506
C	5.74677	1.02496	0.367361
C	6.02476	0.378627	-0.818438
N	5.33218	-0.782091	-0.916308
C	4.62721	-0.855559	0.204514
N	4.84253	0.210298	1.01147
H	6.1161	1.97528	0.784524
H	6.71266	0.729031	-1.60512
H	3.93769	-1.66802	0.485032
H	4.40417	0.383163	1.94914
