18
  This energy is -1.1306 and Call times are: 141370
C	-0.657768	0.205525	-0.900834
C	-0.327903	1.17574	-0.000697618
C	0.499361	0.539448	0.974435
C	0.601997	-0.763426	0.584106
O	-0.0984713	-0.985067	-0.559236
H	-1.27464	0.234662	-1.814
H	-0.636206	2.23339	-0.0213266
H	0.959994	1.00567	1.86018
H	1.13619	-1.61963	1.02774
C	6.05134	-0.38882	-0.358594
C	5.67003	-0.109812	0.936742
N	4.38551	0.319232	0.986316
C	3.97153	0.30644	-0.273476
N	4.93939	-0.112959	-1.12256
H	7.00353	-0.75204	-0.77686
H	6.29874	-0.210402	1.83643
H	2.96938	0.594384	-0.629889
H	4.8582	-0.209577	-2.16435
