18
  This energy is -2.0478 and Call times are: 56469
C	0.0648515	1.11604	0.191468
C	0.788608	0.499446	-0.786473
C	0.440828	-0.884142	-0.716834
C	-0.464751	-0.990905	0.297514
O	-0.706089	0.220938	0.863379
H	0.0103846	2.17135	0.505469
H	1.49639	0.971572	-1.48665
H	0.825348	-1.69805	-1.35228
H	-1.00312	-1.86072	0.70841
C	6.11338	-0.157722	-1.09057
C	6.39824	0.89038	-0.241167
N	5.74821	0.752676	0.939934
C	5.06268	-0.376559	0.8237
N	5.2496	-0.963059	-0.382397
H	6.45289	-0.380069	-2.11469
H	7.06116	1.74347	-0.4594
H	4.40812	-0.819957	1.59128
H	4.81863	-1.86032	-0.714733
