18
  This energy is -1.8458 and Call times are: 159802
C	0.681846	-0.892548	-0.157625
C	0.872482	0.294895	-0.801062
C	-0.172537	1.15701	-0.348498
C	-0.909518	0.420286	0.531543
O	-0.401992	-0.833857	0.660215
H	1.24011	-1.84238	-0.195314
H	1.66908	0.539206	-1.52206
H	-0.347272	2.20265	-0.648837
H	-1.8053	0.670003	1.12355
C	3.84663	-0.319457	1.03803
C	4.01177	0.966057	0.567574
N	4.56545	0.966356	-0.669337
C	4.74313	-0.314104	-0.965106
N	4.32544	-1.12911	0.0323436
H	3.43597	-0.702628	1.98569
H	3.74133	1.89334	1.09848
H	5.17485	-0.710443	-1.89825
H	4.3598	-2.17793	0.0384301
