18
  This energy is -1.6686 and Call times are: 130643
C	-0.681062	0.778376	0.465495
C	0.242765	0.0872893	1.19304
C	0.894358	-0.7858	0.269315
C	0.311189	-0.551171	-0.941154
O	-0.653072	0.401168	-0.839857
H	-1.40854	1.5542	0.755554
H	0.445079	0.182757	2.27195
H	1.70232	-1.50186	0.489636
H	0.490342	-0.990168	-1.93636
C	4.90897	-0.339193	-1.08874
C	6.18223	-0.188411	-0.581558
N	6.14844	0.216753	0.711195
C	4.85913	0.316943	1.00489
N	4.07117	-0.00767824	-0.0474058
H	4.55171	-0.648622	-2.0838
H	7.12465	-0.364712	-1.12527
H	4.43686	0.623629	1.97539
H	3.02193	-0.0069635	-0.0664022
