18
  This energy is -0.8575 and Call times are: 9524
C	0.514928	-0.484809	0.886685
C	1.20961	0.0873556	-0.138216
C	0.226557	0.581268	-1.04914
C	-0.982071	0.267325	-0.500474
O	-0.824818	-0.384003	0.68192
H	0.852578	-0.98963	1.80668
H	2.30446	0.154831	-0.242322
H	0.407671	1.10783	-1.99994
H	-2.01224	0.449735	-0.84793
C	5.3297	0.742706	-0.490021
C	6.68395	0.943838	-0.326585
N	7.26668	-0.120475	0.276879
C	6.27771	-0.978613	0.487018
N	5.08988	-0.504426	0.0422732
H	4.54581	1.37762	-0.93268
H	7.25099	1.83784	-0.63329
H	6.36791	-1.96849	0.962671
H	4.16286	-0.993605	0.0932292
