18
  This energy is -0.9496 and Call times are: 179891
C	-0.13215	1.12641	-0.0120265
C	-1.18642	0.266233	-0.106835
C	-0.625776	-1.04649	-0.0562135
C	0.721605	-0.872613	0.0650614
O	1.04078	0.448114	0.0936425
H	-0.0852698	2.22779	-0.0079331
H	-2.25201	0.529706	-0.202793
H	-1.17024	-2.00318	-0.105119
H	1.54857	-1.59775	0.13959
C	4.87806	-0.836595	-0.098072
C	4.66701	0.520312	0.0260312
N	5.84101	1.19118	0.116333
C	6.77683	0.25402	0.0485092
N	6.24692	-0.985319	-0.081204
H	4.17449	-1.67881	-0.193997
H	3.68865	1.02726	0.0520302
H	7.8654	0.420226	0.0889428
H	6.7777	-1.88759	-0.154886
