18
  This energy is -0.7296 and Call times are: 88623
C	-0.493349	-0.774369	-0.665852
C	-0.563877	-0.82988	0.695147
C	0.168518	0.300272	1.17104
C	0.621948	0.946636	0.0588371
O	0.227062	0.304165	-1.07179
H	-0.907556	-1.43293	-1.44687
H	-1.07988	-1.59038	1.30299
H	0.333268	0.590238	2.22121
H	1.2268	1.86057	-0.0600245
C	6.54536	-0.436586	0.318902
C	6.28603	0.389092	-0.754479
N	4.96887	0.699991	-0.824766
C	4.41319	0.0695821	0.20111
N	5.32218	-0.629537	0.921214
H	7.48253	-0.885538	0.684565
H	7.02573	0.766053	-1.47946
H	3.34495	0.0858768	0.470991
H	5.13149	-1.2083	1.77558
