18
  This energy is -0.8761 and Call times are: 11943
C	0.697486	0.806901	0.385778
C	0.933414	-0.521	0.589224
C	-0.149979	-1.21084	-0.0356789
C	-0.952315	-0.243586	-0.56583
O	-0.449942	0.994627	-0.317912
H	1.26232	1.70437	0.687063
H	1.78494	-0.969729	1.12555
H	-0.305459	-2.30076	-0.0801997
H	-1.89492	-0.305958	-1.13403
C	4.586	-0.0819537	-0.370634
C	5.63467	-0.909539	-0.712006
N	6.78079	-0.523547	-0.10052
C	6.44443	0.539454	0.61747
N	5.13179	0.845816	0.488166
H	3.52534	-0.087395	-0.66814
H	5.58482	-1.77823	-1.38857
H	7.12004	1.13127	1.25585
H	4.62618	1.63898	0.953471
