18
  This energy is -0.7397 and Call times are: 186426
C	0.750396	-0.44123	0.727065
C	0.0737602	-1.20535	-0.177736
C	-0.764286	-0.303552	-0.902004
C	-0.525788	0.932029	-0.375857
O	0.396583	0.866589	0.620116
H	1.49991	-0.704812	1.49126
H	0.156489	-2.29474	-0.320785
H	-1.46052	-0.554739	-1.71825
H	-0.942331	1.9232	-0.619404
C	6.52436	-0.679773	0.26184
C	6.40739	0.181555	-0.808477
N	5.20524	0.807098	-0.803167
C	4.5788	0.335633	0.266376
N	5.33254	-0.563958	0.941802
H	7.34403	-1.34476	0.577238
H	7.16889	0.36284	-1.58444
H	3.5669	0.615223	0.601213
H	5.06082	-1.07571	1.81675
