18
  This energy is -1.3505 and Call times are: 112756
C	-0.628992	0.710493	0.621265
C	-0.138119	1.05118	-0.604848
C	0.591199	-0.0877467	-1.06427
C	0.481619	-1.02387	-0.078349
O	-0.260213	-0.553316	0.958608
H	-1.24562	1.27056	1.34331
H	-0.275796	2.00847	-1.1328
H	1.13142	-0.189075	-2.01925
H	0.879767	-2.0485	0.00445612
C	5.46311	0.247737	-1.00331
C	5.91692	0.476237	0.278485
N	5.0095	0.0674047	1.19824
C	3.99661	-0.412898	0.48974
N	4.22194	-0.326614	-0.842691
H	5.92032	0.446567	-1.98563
H	6.88283	0.928768	0.556109
H	3.06555	-0.839796	0.896096
H	3.57451	-0.637927	-1.60766
