18
  This energy is -1.612 and Call times are: 206056
C	0.967721	-0.118969	0.579451
C	0.926271	-0.132498	-0.783807
C	-0.447057	0.0428914	-1.13498
C	-1.1236	0.148116	0.0446755
O	-0.275222	0.0514632	1.102
H	1.80761	-0.219384	1.28639
H	1.7774	-0.253817	-1.47298
H	-0.872426	0.0845962	-2.15057
H	-2.19456	0.291739	0.262984
C	5.01443	0.418109	0.987165
C	6.33951	0.504383	0.615877
N	6.54966	-0.0857873	-0.585807
C	5.35948	-0.536474	-0.958593
N	4.40076	-0.257525	-0.0439142
H	4.48246	0.777696	1.88229
H	7.14767	0.981897	1.19355
H	5.13388	-1.07758	-1.89162
H	3.38374	-0.508172	-0.107982
