18
  This energy is -1.1577 and Call times are: 173122
C	-0.228543	-0.440806	-1.01974
C	-1.09473	-0.539068	0.0292819
C	-0.462045	0.127731	1.12254
C	0.734916	0.574602	0.645082
O	0.894087	0.23624	-0.661512
H	-0.293363	-0.805525	-2.05802
H	-2.08033	-1.03169	0.0328642
H	-0.859568	0.254895	2.14229
H	1.55042	1.13767	1.12796
C	4.40485	-0.903608	-0.754031
C	4.64006	-0.957404	0.603514
N	4.55512	0.273827	1.16331
C	4.2683	1.08835	0.156867
N	4.16723	0.426408	-1.02008
H	4.39023	-1.69138	-1.52392
H	4.86953	-1.86256	1.18908
H	4.12169	2.17828	0.226049
H	3.94937	0.846349	-1.9568
