18
  This energy is -1.5037 and Call times are: 32565
C	0.483069	0.823418	-0.612396
C	-0.196877	1.07539	0.542836
C	-0.650354	-0.194266	1.01449
C	-0.20749	-1.11002	0.105843
O	0.486582	-0.506045	-0.894402
H	1.00282	1.49428	-1.316
H	-0.362489	2.05687	1.01544
H	-1.23747	-0.392915	1.92549
H	-0.318706	-2.20576	0.0585005
C	4.00084	-1.12082	-0.298655
C	4.20959	-0.627562	0.971882
N	4.4074	0.712913	0.949244
C	4.32169	1.04997	-0.330472
N	4.07755	-0.0204833	-1.12301
H	3.80952	-2.14289	-0.66239
H	4.22102	-1.21489	1.90449
H	4.42972	2.06636	-0.742186
H	3.96763	-0.0135469	-2.16663
