18
  This energy is -1.0297 and Call times are: 205126
C	-0.894287	0.111384	-0.688655
C	-0.243803	1.18571	-0.156621
C	0.809819	0.647791	0.643777
C	0.710178	-0.70777	0.530197
O	-0.325074	-1.05302	-0.279783
H	-1.76376	0.0435591	-1.36295
H	-0.482031	2.2502	-0.312195
H	1.55093	1.21228	1.23217
H	1.30672	-1.52406	0.969581
C	6.23911	-0.545101	-0.0906362
C	5.10524	-0.796381	-0.833834
N	4.08809	0.0193246	-0.464322
C	4.58904	0.773776	0.504426
N	5.88276	0.471918	0.766615
H	7.24095	-1.00277	-0.110459
H	5.00287	-1.55164	-1.63005
H	4.05214	1.5624	1.05584
H	6.49729	0.926086	1.48589
