18
  This energy is -1.3454 and Call times are: 210998
C	0.803424	-0.513092	-0.61453
C	1.09907	0.336649	0.410607
C	-0.157281	0.773417	0.931117
C	-1.10976	0.152021	0.178107
O	-0.540888	-0.637533	-0.770578
H	1.4504	-1.08459	-1.30014
H	2.10133	0.626785	0.764731
H	-0.322798	1.46952	1.76905
H	-2.21087	0.188242	0.216735
C	4.89571	-0.947231	0.698447
C	4.88048	-0.935614	-0.68024
N	4.89132	0.332379	-1.15835
C	4.91319	1.10445	-0.0803658
N	4.91672	0.380269	1.06381
H	4.89317	-1.77849	1.42131
H	4.86186	-1.81944	-1.33854
H	4.92734	2.20625	-0.0718159
H	4.93246	0.758064	2.04273
