18
  This energy is -1.4186 and Call times are: 77730
C	-0.627421	-0.93836	-0.110562
C	0.458657	-0.689014	-0.897097
C	0.976203	0.569024	-0.461659
C	0.160703	0.97739	0.552526
O	-0.824068	0.0689126	0.78036
H	-1.33342	-1.78465	-0.0858998
H	0.855532	-1.32698	-1.70306
H	1.85413	1.10039	-0.862888
H	0.174814	1.88154	1.18306
C	5.27376	-0.207688	-0.942343
C	5.02239	1.01574	-0.358235
N	4.20154	0.886667	0.712302
C	3.94465	-0.411899	0.792024
N	4.56802	-1.11441	-0.183412
H	5.88453	-0.487902	-1.81525
H	5.41862	1.98926	-0.690078
H	3.30661	-0.901866	1.54507
H	4.52241	-2.15209	-0.33305
