18
  This energy is -1.0962 and Call times are: 13455
C	0.539501	0.217337	0.973706
C	-0.790004	0.469754	0.803189
C	-1.09577	0.069193	-0.533291
C	0.073885	-0.392641	-1.0615
O	1.08303	-0.309528	-0.155008
H	1.20688	0.366068	1.83842
H	-1.48561	0.895329	1.54421
H	-2.07558	0.122449	-1.03452
H	0.315827	-0.801252	-2.05636
C	5.15568	-0.163114	1.02455
C	4.91053	1.04074	0.39863
N	4.24615	0.858344	-0.768348
C	4.07977	-0.453678	-0.866017
N	4.61074	-1.11364	0.190443
H	5.66246	-0.402685	1.97288
H	5.20115	2.03766	0.768164
H	3.57622	-0.984091	-1.69023
H	4.60786	-2.15164	0.344744
