18
  This energy is -0.6175 and Call times are: 52733
C	-1.00659	-0.301606	-0.426859
C	-0.765866	-0.257286	0.914954
C	0.593064	0.159681	1.05483
C	1.0628	0.333354	-0.213854
O	0.099244	0.0560572	-1.13129
H	-1.91034	-0.568158	-0.999087
H	-1.47419	-0.49443	1.72498
H	1.14786	0.310104	1.99487
H	2.04987	0.646971	-0.591459
C	6.3225	-0.639029	-0.980678
C	5.14535	-0.347764	-0.324444
N	5.37338	0.413154	0.773517
C	6.68699	0.593256	0.798334
N	7.30422	-0.0215259	-0.238324
H	6.52432	-1.22256	-1.89298
H	4.13561	-0.673029	-0.623544
H	7.24894	1.16673	1.55303
H	8.33436	-0.026783	-0.438438
