18
  This energy is -1.6094 and Call times are: 62703
C	-0.285349	-0.925802	-0.589803
C	0.317856	0.151896	-1.16867
C	0.514774	1.10033	-0.118998
C	0.0145191	0.518488	1.00864
O	-0.478195	-0.719181	0.739532
H	-0.623093	-1.88755	-1.0096
H	0.596215	0.267387	-2.22851
H	0.976166	2.09739	-0.203184
H	-0.0492329	0.876403	2.04936
C	3.93546	0.720741	0.530194
C	5.03018	0.109077	1.10343
N	5.69172	-0.654722	0.200389
C	5.00999	-0.517421	-0.92878
N	3.94212	0.302076	-0.781623
H	3.17744	1.40161	0.948965
H	5.35453	0.205206	2.15244
H	5.24896	-0.994562	-1.89287
H	3.25093	0.567884	-1.52517
