18
  This energy is -0.9342 and Call times are: 201038
C	-0.288876	-0.280302	-1.06037
C	0.977866	-0.442389	-0.581342
C	0.946271	0.0166805	0.770832
C	-0.336989	0.418773	0.998733
O	-1.10507	0.244493	-0.108828
H	-0.730806	-0.497039	-2.04676
H	1.8473	-0.844851	-1.12558
H	1.78634	0.040921	1.48343
H	-0.822881	0.840787	1.89375
C	5.4513	-0.190829	-1.1603
C	4.74779	-0.860096	-0.181374
N	5.04776	-0.380705	1.05017
C	5.93399	0.582301	0.836078
N	6.21034	0.735511	-0.480642
H	5.46505	-0.304411	-2.25595
H	4.02914	-1.68028	-0.341649
H	6.41254	1.20669	1.60768
H	6.87598	1.42802	-0.90326
