18
  This energy is -1.926 and Call times are: 90432
C	0.224119	-0.800939	0.771147
C	-0.577795	-1.0301	-0.308108
C	-0.616949	0.199283	-1.03419
C	0.164496	1.07118	-0.334537
O	0.686165	0.477156	0.770908
H	0.539412	-1.45591	1.59991
H	-1.09034	-1.97053	-0.566948
H	-1.16588	0.401564	-1.96792
H	0.42531	2.12678	-0.516044
C	5.36274	0.481346	-0.929917
C	6.61252	0.797715	-0.440955
N	6.91719	0.0459114	0.644624
C	5.86043	-0.73389	0.828427
N	4.896	-0.509414	-0.0952043
H	4.7915	0.877905	-1.7843
H	7.29986	1.55497	-0.852029
H	5.74044	-1.48688	1.62394
H	3.96929	-0.997174	-0.162614
