18
  This energy is -1.3443 and Call times are: 3189
C	0.405943	-0.281039	1.02109
C	-0.0389117	0.975619	0.73249
C	-0.464527	0.936333	-0.630384
C	-0.242189	-0.340863	-1.0543
O	0.289134	-1.09807	-0.0586417
H	0.823423	-0.71468	1.94463
H	-0.0647486	1.84322	1.41124
H	-0.88597	1.76742	-1.21842
H	-0.41691	-0.829168	-2.02707
C	3.95131	-0.682698	0.137863
C	5.18209	-1.06539	-0.351917
N	6.04552	-0.021114	-0.373715
C	5.35303	1.00552	0.100737
N	4.08478	0.657742	0.42351
H	3.02096	-1.25044	0.298006
H	5.46253	-2.0763	-0.68995
H	5.72602	2.03394	0.232838
H	3.34424	1.28895	0.816489
