18
  This energy is -1.0982 and Call times are: 196435
C	-1.0102	0.447704	0.255863
C	-0.549748	0.368574	-1.02558
C	0.737007	-0.245675	-0.941463
C	0.949286	-0.48768	0.383959
O	-0.107547	-0.070584	1.12971
H	-1.95054	0.845406	0.671597
H	-1.06458	0.70864	-1.93849
H	1.41821	-0.476548	-1.77618
H	1.79933	-0.944644	0.916737
C	7.3179	-0.890531	0.569057
C	6.15892	-0.946893	-0.175739
N	5.84997	0.267635	-0.691479
C	6.81363	1.07439	-0.268242
N	7.72292	0.423518	0.49541
H	7.86487	-1.66664	1.12764
H	5.5401	-1.84215	-0.35021
H	6.90187	2.15055	-0.488061
H	8.57424	0.840451	0.945611
