18
  This energy is -1.4249 and Call times are: 177412
C	-0.853231	-0.0702247	-0.743953
C	-0.207769	-1.17289	-0.266572
C	0.788739	-0.684021	0.632373
C	0.664259	0.674222	0.624968
O	-0.333662	1.06646	-0.210086
H	-1.68657	0.037373	-1.45754
H	-0.41281	-2.22497	-0.521856
H	1.50994	-1.28171	1.21265
H	1.21746	1.46203	1.16217
C	4.17754	0.983745	-0.488736
C	4.16098	0.651434	0.849337
N	4.73375	-0.558655	1.0594
C	5.10423	-0.975464	-0.143773
N	4.79093	-0.0807395	-1.11068
H	3.80854	1.87275	-1.02451
H	3.746	1.26314	1.66693
H	5.60866	-1.92784	-0.373459
H	4.97938	-0.179177	-2.13832
