18
  This energy is -1.3204 and Call times are: 198147
C	-0.425185	-0.569856	0.883675
C	-0.0708668	-1.18581	-0.280553
C	0.414216	-0.151695	-1.13811
C	0.313503	1.00491	-0.422225
O	-0.197192	0.768158	0.814768
H	-0.845439	-0.96682	1.82232
H	-0.143783	-2.26058	-0.512215
H	0.79218	-0.26525	-2.16687
H	0.568194	2.04682	-0.676788
C	4.00087	-0.180465	-0.844934
C	5.18542	-0.86329	-0.666828
N	5.86345	-0.393294	0.408295
C	5.10243	0.577412	0.895313
N	3.96828	0.744528	0.174631
H	3.20532	-0.283874	-1.59988
H	5.56298	-1.68665	-1.29482
H	5.32805	1.1978	1.77761
H	3.20883	1.44523	0.357672
