18
  This energy is -0.9183 and Call times are: 149788
C	0.533975	0.656372	-0.75528
C	1.00762	0.46397	0.509244
C	0.0750548	-0.40968	1.14735
C	-0.886137	-0.67403	0.216437
O	-0.621799	-0.0311803	-0.951416
H	0.921727	1.25108	-1.59862
H	1.92197	0.894114	0.94859
H	0.122602	-0.791587	2.17982
H	-1.79595	-1.29492	0.260963
C	5.98254	-0.62107	-0.982875
C	6.93505	-0.211305	-0.0740552
N	6.37235	0.485986	0.942634
C	5.07568	0.508715	0.665593
N	4.79003	-0.145209	-0.485223
H	6.06613	-1.19837	-1.91737
H	8.01823	-0.406305	-0.13373
H	4.29127	0.990165	1.27152
H	3.84096	-0.26659	-0.916258
