18
  This energy is -1.1485 and Call times are: 39659
C	0.657021	0.74399	0.54882
C	0.743825	-0.600937	0.758609
C	-0.22904	-1.19455	-0.102364
C	-0.824465	-0.15997	-0.762277
O	-0.295651	1.03118	-0.376895
H	1.20973	1.58986	0.989579
H	1.42464	-1.12266	1.45027
H	-0.452494	-2.26803	-0.210976
H	-1.6254	-0.140054	-1.51948
C	5.69744	0.694568	-0.738738
C	4.4371	0.920539	-0.227257
N	4.05515	-0.0874191	0.594113
C	5.07467	-0.935476	0.592195
N	6.08947	-0.508891	-0.196347
H	6.32227	1.28529	-1.42734
H	3.79652	1.79281	-0.436176
H	5.13054	-1.88389	1.15043
H	7.0012	-1.00113	-0.362826
