18
  This energy is -2.4581 and Call times are: 70004
C	-0.285138	1.07128	0.239712
C	-0.195853	0.106832	1.20005
C	0.181667	-1.09012	0.518203
C	0.289752	-0.751444	-0.798609
O	0.00814767	0.564719	-0.986825
H	-0.544359	2.14107	0.299802
H	-0.377607	0.226308	2.28023
H	0.350815	-2.08319	0.96461
H	0.555813	-1.34709	-1.68724
C	3.67228	-1.07593	-0.419054
C	4.46938	-0.112924	-1.00077
N	4.50936	1.01064	-0.244129
C	3.73999	0.745677	0.803004
N	3.21214	-0.499907	0.743985
H	3.4087	-2.09634	-0.739721
H	5.01634	-0.208709	-1.95287
H	3.52893	1.42805	1.64208
H	2.57396	-0.942513	1.44973
