18
  This energy is -0.7242 and Call times are: 66064
C	-0.501195	1.01685	0.0350173
C	0.51143	0.731133	-0.832929
C	0.873798	-0.626669	-0.577626
C	0.050621	-1.05083	0.423795
O	-0.795564	-0.0599958	0.81011
H	-1.08727	1.93629	0.197488
H	0.958377	1.40857	-1.57819
H	1.65756	-1.2113	-1.08558
H	-0.0312595	-2.02064	0.941496
C	6.74653	0.144712	0.51858
C	6.05026	1.08134	-0.215642
N	4.87723	0.574722	-0.667131
C	4.8459	-0.671459	-0.21472
N	5.95037	-0.978746	0.505907
H	7.71977	0.196418	1.03207
H	6.3733	2.11359	-0.427693
H	4.03811	-1.40207	-0.38179
H	6.16022	-1.89772	0.967104
