18
  This energy is -1.4087 and Call times are: 174180
C	-0.284009	-1.02832	-0.385092
C	-0.422724	-0.674986	0.924979
C	0.0334352	0.675469	1.01613
C	0.410634	1.02816	-0.246293
O	0.223576	-0.000277203	-1.11481
H	-0.507502	-1.96795	-0.916505
H	-0.807655	-1.30239	1.74491
H	0.0725017	1.3033	1.92078
H	0.821842	1.96756	-0.650884
C	5.23867	0.291035	-0.944715
C	5.6606	0.279727	0.367914
N	4.66235	-0.107281	1.19872
C	3.62508	-0.335196	0.404517
N	3.92197	-0.109245	-0.897172
H	5.76468	0.547061	-1.87815
H	6.66742	0.543882	0.73038
H	2.62468	-0.669085	0.723811
H	3.27281	-0.218219	-1.71447
