18
  This energy is -1.3485 and Call times are: 29935
C	0.254577	0.894275	0.64951
C	0.696022	0.775566	-0.635561
C	0.175512	-0.465229	-1.11474
C	-0.538061	-0.995219	-0.0801881
O	-0.500539	-0.178233	1.00523
H	0.406569	1.68268	1.40487
H	1.32509	1.49008	-1.1904
H	0.320766	-0.904025	-2.11497
H	-1.11031	-1.93326	0.00844606
C	4.22242	0.183639	1.12886
C	4.0266	1.05286	0.0765938
N	4.46461	0.516449	-1.08828
C	4.93038	-0.68099	-0.759918
N	4.80689	-0.928708	0.565591
H	3.99481	0.274876	2.20282
H	3.57713	2.05743	0.137043
H	5.37263	-1.41677	-1.45077
H	5.10044	-1.80178	1.06841
