18
  This energy is -0.9371 and Call times are: 191819
C	-0.0166298	-1.11543	-0.204796
C	-1.1486	-0.406696	0.0721915
C	-0.726283	0.943588	0.268411
C	0.626473	0.940794	0.0940083
O	1.07678	-0.308347	-0.195615
H	0.1416	-2.18427	-0.423426
H	-2.17774	-0.795735	0.132305
H	-1.36289	1.80963	0.510909
H	1.37231	1.75074	0.148399
C	6.19098	0.0800549	-0.629798
C	5.62013	1.0683	0.143925
N	4.47986	0.631286	0.731577
C	4.34385	-0.623297	0.323967
N	5.3503	-1.00265	-0.498674
H	7.10546	0.0709423	-1.24395
H	6.01059	2.08881	0.288665
H	3.52593	-1.30915	0.597553
H	5.46783	-1.94248	-0.950513
