18
  This energy is -1.5438 and Call times are: 206345
C	-0.142706	-1.12342	-0.0629543
C	-0.169253	-0.320835	-1.16546
C	0.044762	1.00787	-0.68708
C	0.183199	0.899947	0.665533
O	0.071498	-0.394578	1.06395
H	-0.261581	-2.21345	0.0508828
H	-0.324019	-0.633148	-2.21074
H	0.0889213	1.93058	-1.2877
H	0.362104	1.65868	1.44499
C	4.789	0.576256	0.902166
C	3.5756	-0.0785756	0.89864
N	3.32361	-0.633979	-0.311541
C	4.37667	-0.324879	-1.05595
N	5.28825	0.40417	-0.369574
H	5.315	1.13393	1.69328
H	2.87746	-0.160228	1.74763
H	4.53135	-0.607032	-2.10984
H	6.20136	0.76885	-0.736314
