18
  This energy is -1.0759 and Call times are: 167290
C	0.401013	-0.549289	0.907674
C	1.11893	0.412699	0.259944
C	0.291076	0.861868	-0.813847
C	-0.859645	0.134709	-0.727505
O	-0.809792	-0.732009	0.318117
H	0.636997	-1.16907	1.78826
H	2.13003	0.770146	0.512927
H	0.532697	1.63681	-1.55895
H	-1.77553	0.139897	-1.341
C	4.99661	0.905925	-0.263886
C	6.32668	0.967926	0.094179
N	6.82764	-0.269152	0.32911
C	5.81221	-1.09546	0.117595
N	4.68593	-0.435415	-0.242178
H	4.27331	1.69508	-0.523932
H	6.93383	1.88311	0.187213
H	5.83857	-2.19302	0.211929
H	3.75366	-0.863836	-0.462589
