18
  This energy is -0.7339 and Call times are: 106743
C	-0.645987	0.821163	-0.441353
C	0.715598	0.897279	-0.41557
C	1.16279	-0.307238	0.208349
C	0.0350021	-1.01309	0.508756
O	-1.0788	-0.338872	0.11901
H	-1.40998	1.51689	-0.825453
H	1.3422	1.71919	-0.797586
H	2.20505	-0.60492	0.406261
H	-0.106767	-1.99333	0.992778
C	6.3634	-1.04328	0.286208
C	5.11468	-0.811741	-0.250664
N	4.90884	0.51189	-0.455947
C	6.02561	1.09926	-0.0479768
N	6.93349	0.204221	0.408374
H	6.8698	-1.97639	0.580169
H	4.35858	-1.57604	-0.493569
H	6.23141	2.18171	-0.0613006
H	7.88952	0.419561	0.783738
