18
  This energy is -0.9135 and Call times are: 68046
C	-0.608411	-0.893407	0.3436
C	0.686164	-1.00702	-0.0705742
C	1.10305	0.314311	-0.417577
C	0.026431	1.11872	-0.184818
O	-1.02758	0.397836	0.280355
H	-1.32982	-1.64564	0.702703
H	1.28724	-1.92882	-0.126156
H	2.09162	0.620674	-0.795695
H	-0.114921	2.20499	-0.308535
C	5.5888	1.0966	-0.116145
C	6.88027	0.72551	0.192968
N	7.00176	-0.623176	0.245847
C	5.79027	-1.08701	-0.0294137
N	4.90299	-0.0893612	-0.255241
H	5.12474	2.08763	-0.242757
H	7.72657	1.40676	0.378781
H	5.49775	-2.14826	-0.0786813
H	3.88632	-0.198492	-0.491312
