18
  This energy is -1.18 and Call times are: 25141
C	0.126127	-0.59336	-0.958341
C	1.17165	0.0281107	-0.341069
C	0.622724	0.660353	0.816111
C	-0.709785	0.369423	0.803823
O	-1.03055	-0.395398	-0.272826
H	0.0753914	-1.1992	-1.87792
H	2.22388	0.0401129	-0.667839
H	1.16472	1.26002	1.56493
H	-1.5243	0.643285	1.49434
C	5.34833	-0.849164	0.813436
C	6.01224	-0.821824	-0.394713
N	5.72597	0.30925	-1.08408
C	4.88765	0.981042	-0.306558
N	4.62867	0.324295	0.84895
H	5.33744	-1.59572	1.62341
H	6.69268	-1.59797	-0.781314
H	4.43327	1.95863	-0.534791
H	3.99951	0.647442	1.62419
