18
  This energy is -1.1373 and Call times are: 134971
C	0.601439	-0.894058	0.354025
C	-0.0225184	-0.0444437	1.21959
C	-0.665471	0.938754	0.407157
C	-0.377656	0.603164	-0.883159
O	0.395126	-0.51362	-0.934274
H	1.21462	-1.79369	0.527026
H	-0.0293309	-0.104104	2.31982
H	-1.2699	1.79297	0.752227
H	-0.659083	1.07156	-1.84058
C	3.9414	0.348228	-0.378402
C	4.8816	1.11793	0.273297
N	5.98951	0.393708	0.564082
C	5.73757	-0.820667	0.0945631
N	4.5153	-0.899131	-0.482907
H	2.938	0.591727	-0.76239
H	4.78039	2.18286	0.538885
H	6.41333	-1.68948	0.146998
H	4.08651	-1.74837	-0.925851
