18
  This energy is -1.1009 and Call times are: 112266
C	-1.08776	-0.320311	-0.0241776
C	-0.408062	-0.130245	1.14298
C	0.912756	0.262245	0.766807
C	0.923596	0.277375	-0.597021
O	-0.289855	-0.0758097	-1.09683
H	-2.12833	-0.625192	-0.222923
H	-0.79771	-0.254016	2.16619
H	1.7508	0.503289	1.44036
H	1.72081	0.518605	-1.31918
C	4.62585	-0.604713	0.265422
C	4.75934	0.766521	0.210262
N	6.02284	1.12126	-0.127733
C	6.67073	-0.0255489	-0.28167
N	5.87184	-1.09525	-0.0556314
H	3.76121	-1.24481	0.502514
H	3.9666	1.50625	0.40829
H	7.73101	-0.139351	-0.559302
H	6.14882	-2.10577	-0.113855
