18
  This energy is -1.2809 and Call times are: 152530
C	0.584584	0.968497	0.0817026
C	1.08716	-0.226109	0.506801
C	0.0718291	-1.19463	0.239984
C	-0.961569	-0.506373	-0.32461
O	-0.66563	0.815957	-0.428894
H	1.01152	1.98484	0.0872776
H	2.07388	-0.407122	0.962547
H	0.114812	-2.27587	0.447724
H	-1.94737	-0.837632	-0.690286
C	5.00971	0.59093	-0.975512
C	5.99448	-0.365931	-0.849868
N	6.0559	-0.840328	0.418078
C	5.11282	-0.18028	1.07653
N	4.45389	0.694419	0.280093
H	4.67623	1.1857	-1.84072
H	6.66177	-0.722494	-1.65139
H	4.86254	-0.298635	2.14311
H	3.66912	1.33028	0.564832
