18
  This energy is -0.8149 and Call times are: 119738
C	0.84264	0.681816	0.333895
C	1.06404	-0.586869	-0.115322
C	-0.222423	-1.11815	-0.43607
C	-1.11639	-0.127224	-0.154543
O	-0.483355	0.979226	0.316675
H	1.53472	1.46251	0.689981
H	2.03578	-1.09737	-0.211198
H	-0.446433	-2.12248	-0.830078
H	-2.2143	-0.0857549	-0.244747
C	6.64602	-0.383893	0.722472
C	5.28475	-0.511878	0.900546
N	4.60268	0.0462586	-0.12891
C	5.53726	0.518699	-0.942535
N	6.7857	0.284298	-0.473437
H	7.49685	-0.71014	1.3415
H	4.78254	-0.996944	1.75339
H	5.36264	1.04474	-1.89491
H	7.68811	0.559195	-0.933156
