18
  This energy is -1.3599 and Call times are: 157930
C	-0.55099	0.781837	-0.609542
C	-0.472692	-0.523881	-0.995991
C	0.289985	-1.18558	0.0142557
C	0.61042	-0.2258	0.928871
O	0.104933	0.981775	0.56383
H	-1.03753	1.65433	-1.07567
H	-0.908307	-0.975747	-1.90161
H	0.563273	-2.25249	0.0476501
H	1.18507	-0.273991	1.8684
C	4.02487	-0.7908	0.786771
C	3.98839	0.581901	0.911291
N	4.50425	1.18601	-0.186643
C	4.8594	0.191861	-0.989238
N	4.5909	-1.01975	-0.447483
H	3.69897	-1.59414	1.46646
H	3.59909	1.14722	1.77368
H	5.32035	0.295	-1.98479
H	4.77822	-1.9553	-0.884419
