18
  This energy is -1.1925 and Call times are: 190057
C	0.489928	-0.419615	-0.932896
C	1.08773	0.530709	-0.158368
C	0.174636	0.798004	0.906963
C	-0.900539	-0.0125761	0.6894
O	-0.725001	-0.763106	-0.429932
H	0.820812	-0.925926	-1.85453
H	2.07286	0.996734	-0.320932
H	0.311055	1.51248	1.73462
H	-1.84014	-0.146972	1.25006
C	6.25786	0.766022	0.8821
C	6.46421	1.0647	-0.448071
N	6.58626	-0.0634434	-1.18895
C	6.45612	-1.05821	-0.3217
N	6.25633	-0.60977	0.940272
H	6.11671	1.41354	1.76206
H	6.52721	2.074	-0.886467
H	6.49886	-2.13383	-0.557191
H	6.12523	-1.19804	1.79935
