18
  This energy is -0.7479 and Call times are: 190217
C	0.761077	0.361333	0.759342
C	1.00114	-0.694793	-0.0697167
C	-0.17491	-0.841256	-0.866939
C	-1.02983	0.138299	-0.454675
O	-0.474523	0.882183	0.53794
H	1.38005	0.83357	1.5398
H	1.91475	-1.30908	-0.115297
H	-0.354441	-1.59168	-1.65353
H	-2.04721	0.406747	-0.783475
C	4.88727	0.215147	0.317246
C	5.69982	1.0226	-0.450181
N	6.92296	0.464478	-0.620262
C	6.86943	-0.684844	0.0391439
N	5.66293	-0.881137	0.621733
H	3.84668	0.338961	0.656912
H	5.4254	1.99788	-0.884198
H	7.68503	-1.4205	0.127636
H	5.37351	-1.71044	1.19597
