18
  This energy is -1.5972 and Call times are: 138325
C	-0.562123	0.632608	-0.755132
C	0.607555	7.68977e-05	-1.05866
C	1.00202	-0.684562	0.131205
C	0.038575	-0.409965	1.05681
O	-0.924412	0.393113	0.532657
H	-1.22462	1.27394	-1.35931
H	1.13925	0.0141946	-2.02365
H	1.90037	-1.30681	0.27219
H	-0.0750643	-0.721239	2.10821
C	4.38517	0.265177	1.14087
C	3.89548	0.983871	0.0709091
N	4.21294	0.388171	-1.10419
C	4.89699	-0.695957	-0.764524
N	5.02791	-0.814746	0.577988
H	4.3238	0.439966	2.22679
H	3.31878	1.92156	0.125787
H	5.32482	-1.43699	-1.45883
H	5.52444	-1.58311	1.09212
