18
  This energy is -0.997 and Call times are: 77634
C	0.603916	0.830554	-0.481525
C	0.824755	0.414671	0.798571
C	-0.119127	-0.630126	1.03857
C	-0.833436	-0.760473	-0.116044
O	-0.405256	0.12374	-1.05511
H	1.09045	1.60937	-1.09143
H	1.57688	0.804527	1.50314
H	-0.244334	-1.2114	1.96623
H	-1.66022	-1.43539	-0.392011
C	5.42762	1.09184	-0.292667
C	4.5789	0.729111	0.731667
N	4.422	-0.615973	0.783082
C	5.17053	-1.08591	-0.205596
N	5.79719	-0.095595	-0.883943
H	5.78289	2.07803	-0.6314
H	4.07696	1.41386	1.43454
H	5.29559	-2.14659	-0.476795
H	6.44178	-0.210447	-1.70405
