18
  This energy is -0.6248 and Call times are: 200814
C	0.0450055	-0.358592	-1.07508
C	-1.05847	0.250539	-0.553855
C	-0.734585	0.550417	0.804559
C	0.538223	0.0980649	0.993529
O	1.02979	-0.460004	-0.143984
H	0.251984	-0.760329	-2.08057
H	-2.00552	0.466977	-1.0738
H	-1.38058	1.04559	1.54725
H	1.19586	0.113579	1.87813
C	5.71964	0.622442	-0.783393
C	4.56125	-0.0869449	-1.02013
N	4.1155	-0.686172	0.110684
C	4.99402	-0.349808	1.0454
N	5.98026	0.438596	0.556183
H	6.35575	1.22498	-1.45111
H	4.03913	-0.177122	-1.98662
H	4.96281	-0.653333	2.10423
H	6.78932	0.834406	1.09473
