18
  This energy is -1.6393 and Call times are: 87306
C	-1.03315	0.176839	-0.433287
C	-0.136111	1.18742	-0.247761
C	1.02988	0.578064	0.308359
C	0.74243	-0.7511	0.413577
O	-0.513307	-1.01395	-0.0348024
H	-2.05981	0.175112	-0.834791
H	-0.280966	2.2549	-0.479297
H	1.9688	1.07914	0.593733
H	1.33812	-1.60069	0.78586
C	5.24628	-1.10389	0.405425
C	6.25516	-0.164885	0.444887
N	5.85662	1.00423	-0.112644
C	4.60525	0.791321	-0.496522
N	4.19106	-0.464801	-0.206353
H	5.2059	-2.14689	0.757649
H	7.2635	-0.310034	0.865658
H	3.94656	1.52081	-0.994728
H	3.24614	-0.873913	-0.408834
