18
  This energy is -1.8092 and Call times are: 18224
C	-0.538028	-0.249366	-0.966821
C	0.284204	0.832219	-0.846479
C	0.766417	0.809136	0.497788
C	0.196291	-0.284518	1.08024
O	-0.603392	-0.942663	0.20026
H	-1.12681	-0.629039	-1.81796
H	0.52681	1.57208	-1.62612
H	1.45724	1.52754	0.967633
H	0.278462	-0.69631	2.09952
C	4.01323	-0.956615	0.659618
C	4.31587	0.311606	1.10813
N	4.46574	1.1732	0.0728966
C	4.25687	0.442261	-1.01372
N	3.98031	-0.848683	-0.712773
H	3.82522	-1.89692	1.20185
H	4.42877	0.620369	2.16016
H	4.29415	0.802094	-2.05456
H	3.77914	-1.62034	-1.39492
