18
  This energy is -1.8649 and Call times are: 40439
C	-0.599893	-0.0890819	0.958433
C	0.0895084	1.04125	0.630622
C	0.707208	0.771122	-0.628584
C	0.340744	-0.500428	-0.959096
O	-0.45757	-1.04088	-0.00117102
H	-1.22172	-0.338119	1.83397
H	0.156358	1.97189	1.21674
H	1.3482	1.45068	-1.21289
H	0.578389	-1.12532	-1.83562
C	4.84526	0.960719	-0.58558
C	5.3919	0.458912	0.576541
N	4.74603	-0.663742	0.975313
C	3.80231	-0.857662	0.0640439
N	3.82095	0.0950707	-0.898008
H	5.10406	1.84314	-1.19213
H	6.24074	0.886804	1.13441
H	3.07063	-1.68153	0.0531453
H	3.17766	0.161638	-1.72445
