18
  This energy is -1.5202 and Call times are: 188007
C	-0.525944	0.753842	-0.66446
C	-0.926631	0.503051	0.614965
C	-0.0312692	-0.489839	1.11757
C	0.837521	-0.758139	0.100916
O	0.550141	-0.00758797	-0.99503
H	-0.917898	1.44141	-1.43184
H	-1.76827	0.970362	1.15102
H	-0.040679	-0.945412	2.1208
H	1.69138	-1.45208	0.0328635
C	3.86647	0.603387	-0.571184
C	4.91916	-0.0878636	-1.13258
N	5.68735	-0.667552	-0.178444
C	5.1134	-0.337181	0.970496
N	4.01188	0.428682	0.786949
H	3.05136	1.18777	-1.02684
H	5.13815	-0.178704	-2.20898
H	5.4583	-0.629269	1.97546
H	3.38755	0.81566	1.53643
