18
  This energy is -1.4924 and Call times are: 24285
C	0.99472	0.105985	-0.53451
C	0.804549	0.534272	0.746419
C	-0.55515	0.231506	1.06212
C	-1.07584	-0.35507	-0.0537557
O	-0.143235	-0.439802	-1.03868
H	1.88053	0.131989	-1.19018
H	1.54726	1.01516	1.4031
H	-1.07628	0.430977	2.01224
H	-2.08192	-0.750333	-0.270162
C	5.07284	-0.873452	0.717731
C	6.22944	-0.805991	-0.0298402
N	6.28307	0.344317	-0.744282
C	5.16399	0.988027	-0.441083
N	4.40055	0.294975	0.436658
H	4.69325	-1.64452	1.40686
H	7.02618	-1.56672	-0.0664982
H	4.85392	1.97	-0.833266
H	3.4732	0.59126	0.828435
