18
  This energy is -1.0199 and Call times are: 139380
C	0.0501293	0.596826	-0.963165
C	0.785439	0.924081	0.138016
C	0.454706	-0.0470924	1.13177
C	-0.453512	-0.882085	0.550139
O	-0.71224	-0.503672	-0.729265
H	-0.0187796	1.06103	-1.96067
H	1.49005	1.76501	0.240245
H	0.851905	-0.108859	2.15769
H	-0.982603	-1.76917	0.93535
C	5.50735	-1.11317	-0.320857
C	6.30326	-0.320528	0.478755
N	5.75946	0.90985	0.642953
C	4.63048	0.880611	-0.052152
N	4.43341	-0.317369	-0.651816
H	5.62525	-2.15256	-0.666271
H	7.26015	-0.614383	0.940133
H	3.91087	1.70866	-0.155703
H	3.61789	-0.588344	-1.25411
