18
  This energy is -1.5302 and Call times are: 3556
C	0.508107	-0.760198	-0.671064
C	-0.447752	0.0970234	-1.13137
C	-0.840015	0.88556	-0.00688671
C	-0.0892341	0.440592	1.0413
O	0.73959	-0.564317	0.653722
H	1.09149	-1.54569	-1.17893
H	-0.83751	0.167043	-2.15961
H	-1.59438	1.68852	0.0100684
H	-0.0516499	0.752276	2.09804
C	3.86178	-0.589661	0.864701
C	4.92456	-1.02608	0.102352
N	5.29287	-0.0888108	-0.804502
C	4.46173	0.92521	-0.605496
N	3.57987	0.671981	0.390386
H	3.30471	-1.07154	1.68385
H	5.43219	-2.00045	0.190421
H	4.45493	1.87692	-1.16086
H	2.82518	1.31434	0.735454
