18
  This energy is -1.0575 and Call times are: 4351
C	0.47691	-0.120173	1.02202
C	-0.744456	-0.646574	0.719455
C	-0.998514	-0.288921	-0.63983
C	0.0900273	0.424462	-1.04792
O	1.00102	0.537273	-0.0457308
H	1.07389	-0.143444	1.94847
H	-1.40066	-1.22836	1.38655
H	-1.89086	-0.538275	-1.23618
H	0.33351	0.89883	-2.01277
C	4.9137	-1.10165	-0.0176841
C	4.39286	-0.430655	1.06843
N	4.01105	0.824816	0.730019
C	4.29394	0.932272	-0.561124
N	4.83992	-0.202785	-1.05825
H	5.31813	-2.12118	-0.120326
H	4.28574	-0.829936	2.09017
H	4.12178	1.81973	-1.19122
H	5.14829	-0.366836	-2.04783
