18
  This energy is -0.9735 and Call times are: 172267
C	0.917656	-0.490781	0.451045
C	0.974552	0.255924	-0.688941
C	-0.361592	0.696961	-0.934551
C	-1.11703	0.180835	0.0770294
O	-0.352035	-0.54726	0.932403
H	1.69943	-1.02735	1.01334
H	1.86781	0.474249	-1.29599
H	-0.710266	1.32523	-1.7699
H	-2.19437	0.257924	0.297584
C	4.76443	-0.821344	0.110966
C	5.0373	0.205506	0.989755
N	6.06825	0.965947	0.547734
C	6.43357	0.412958	-0.600904
N	5.67779	-0.66781	-0.908048
H	4.01009	-1.62371	0.137731
H	4.50875	0.411293	1.93482
H	7.24812	0.759081	-1.25736
H	5.77002	-1.27341	-1.7601
