18
  This energy is -0.946 and Call times are: 43594
C	1.02613	-0.365305	-0.316234
C	-0.116413	-0.759868	-0.948122
C	-1.18592	-0.0970532	-0.272144
C	-0.602522	0.644036	0.713151
O	0.747955	0.492147	0.700823
H	2.08418	-0.619822	-0.492306
H	-0.197894	-1.44858	-1.80436
H	-2.2615	-0.169681	-0.50006
H	-1.03259	1.31176	1.47764
C	4.73204	0.72947	-0.79623
C	5.34928	1.08048	0.385698
N	5.77181	-0.0160365	1.06071
C	5.41803	-1.04339	0.300431
N	4.78793	-0.645994	-0.830339
H	4.27231	1.34075	-1.58902
H	5.49731	2.10528	0.763485
H	5.59594	-2.10757	0.524236
H	4.41334	-1.2673	-1.58857
