18
  This energy is -0.702 and Call times are: 203122
C	-1.04353	0.44394	0.0189656
C	0.0118629	1.03159	0.652356
C	1.137	0.188027	0.402196
C	0.66984	-0.840646	-0.36198
O	-0.659815	-0.70045	-0.60565
H	-2.10328	0.736758	-0.0612509
H	-0.000685402	1.96542	1.23708
H	2.17026	0.33777	0.754396
H	1.17561	-1.72156	-0.79027
C	5.79904	0.857284	-0.699564
C	7.00905	0.204094	-0.801416
N	7.14396	-0.729198	0.171865
C	6.02191	-0.655279	0.87484
N	5.17867	0.286359	0.389185
H	5.35049	1.66118	-1.30462
H	7.78713	0.389523	-1.55974
H	5.76621	-1.26737	1.75473
H	4.23257	0.534282	0.769553
