18
  This energy is -1.3547 and Call times are: 154834
C	0.633145	-0.579182	0.741672
C	-0.481849	0.111545	1.11592
C	-0.997426	0.699074	-0.0795379
C	-0.15198	0.315512	-1.07877
O	0.849576	-0.465554	-0.595212
H	1.34849	-1.18337	1.32348
H	-0.89937	0.198592	2.13189
H	-1.89417	1.33222	-0.174733
H	-0.154012	0.528815	-2.16032
C	4.04448	0.669513	0.154377
C	5.34176	1.10521	-0.0141352
N	6.19218	0.06096	-0.165232
C	5.42541	-1.01845	-0.0907386
N	4.12236	-0.704287	0.101492
H	3.10281	1.22144	0.303223
H	5.67933	2.15433	-0.0293984
H	5.76655	-2.0632	-0.17047
H	3.32359	-1.37873	0.192841
