18
  This energy is -1.1621 and Call times are: 190185
C	-0.148212	0.656991	0.912577
C	-1.09618	-0.226444	0.486821
C	-0.549921	-0.857731	-0.67214
C	0.683641	-0.30434	-0.852298
O	0.94539	0.622663	0.106433
H	-0.13137	1.35757	1.76355
H	-2.0813	-0.414674	0.94312
H	-1.02729	-1.63274	-1.29309
H	1.46055	-0.482132	-1.61391
C	4.5284	-0.194906	-1.12842
C	4.14716	0.88466	-0.360085
N	4.63897	0.786392	0.898876
C	5.32271	-0.349815	0.911515
N	5.28633	-0.978552	-0.287216
H	4.3209	-0.452373	-2.17923
H	3.52605	1.7327	-0.691589
H	5.86906	-0.768541	1.77198
H	5.74761	-1.88944	-0.529629
