18
  This energy is -1.1147 and Call times are: 74422
C	0.592483	0.0405245	0.966293
C	-0.769708	-0.0260759	0.946973
C	-1.13995	-0.0607524	-0.432098
C	0.0286734	-0.0122816	-1.13377
O	1.09676	0.0498669	-0.295703
H	1.31048	0.0855833	1.80158
H	-1.44596	-0.0485308	1.81661
H	-2.16034	-0.115439	-0.844294
H	0.231516	-0.0154716	-2.21732
C	4.91949	-0.505044	-1.05629
C	4.17894	0.618379	-0.755226
N	4.26542	0.921917	0.562688
C	5.05662	-0.0096578	1.07727
N	5.47714	-0.893343	0.141393
H	5.08366	-1.03789	-2.00637
H	3.58377	1.21534	-1.46535
H	5.36049	-0.0916385	2.13328
H	6.10782	-1.7173	0.298261
