18
  This energy is -0.8291 and Call times are: 122119
C	0.64284	-0.558392	0.749237
C	1.13705	0.442502	-0.0345616
C	0.0411138	0.891032	-0.833223
C	-1.02606	0.124633	-0.466972
O	-0.676643	-0.765874	0.498386
H	1.12123	-1.19195	1.51409
H	2.16976	0.826441	-0.0488801
H	0.055154	1.69187	-1.58989
H	-2.07256	0.115159	-0.813377
C	5.90094	-1.07568	0.37074
C	5.04198	-0.19568	0.994387
N	4.92431	0.955225	0.288638
C	5.7073	0.789848	-0.768816
N	6.31828	-0.418572	-0.765146
H	6.23366	-2.0892	0.64569
H	4.50504	-0.370591	1.94094
H	5.86972	1.52167	-1.57646
H	6.98321	-0.785095	-1.48956
