18
  This energy is -0.6592 and Call times are: 98937
C	-1.12402	-0.107195	0.107239
C	-0.398396	0.767279	0.861656
C	0.958258	0.613196	0.442291
C	0.941908	-0.341833	-0.531375
O	-0.32154	-0.792834	-0.748883
H	-2.20282	-0.332833	0.0846098
H	-0.78019	1.45213	1.6358
H	1.83746	1.15483	0.826641
H	1.75075	-0.781863	-1.13751
C	5.68634	-0.707313	-0.712901
C	5.1775	0.162565	0.228126
N	6.17114	0.822236	0.871576
C	7.29215	0.363344	0.331781
N	7.05296	-0.560958	-0.628451
H	5.18925	-1.39713	-1.41332
H	4.11121	0.326005	0.454312
H	8.31534	0.670048	0.602393
H	7.77163	-1.06926	-1.19976
