18
  This energy is -1.6618 and Call times are: 27932
C	0.0239347	-0.686592	-0.902452
C	0.587637	0.55537	-0.914404
C	0.35488	1.10291	0.384112
C	-0.330508	0.147203	1.07494
O	-0.541306	-0.952382	0.304557
H	-0.041378	-1.46733	-1.67798
H	1.1145	1.03756	-1.75346
H	0.665398	2.09403	0.752022
H	-0.719678	0.128313	2.10617
C	3.8403	-0.386897	-1.01197
C	3.86563	-1.05456	0.194149
N	4.47443	-0.312443	1.15077
C	4.82545	0.811344	0.540437
N	4.46523	0.815014	-0.764867
H	3.4353	-0.672478	-1.99582
H	3.45552	-2.05847	0.391237
H	5.34837	1.66428	1.00227
H	4.63051	1.58646	-1.45683
