18
  This energy is -0.7914 and Call times are: 167322
C	1.0939	-0.243712	-0.17435
C	0.226844	-0.00290576	-1.19934
C	-1.03683	0.261864	-0.58848
C	-0.830432	0.159481	0.755876
O	0.465188	-0.148724	1.02678
H	2.16832	-0.490348	-0.168283
H	0.454315	-0.0109212	-2.27744
H	-1.98393	0.499949	-1.09878
H	-1.51428	0.281246	1.6119
C	6.0607	-0.0470575	0.97281
C	5.29	1.01379	0.546456
N	4.65985	0.723244	-0.617592
C	5.03818	-0.513146	-0.912261
N	5.88293	-1.02132	0.0160452
H	6.70169	-0.17342	1.85977
H	5.17734	1.98362	1.05791
H	4.72662	-1.09372	-1.79549
H	6.31932	-1.97566	0.00840363
