18
  This energy is -0.8894 and Call times are: 204645
C	0.372228	0.903969	-0.575054
C	0.217561	0.91326	0.780071
C	-0.26185	-0.386495	1.12781
C	-0.357822	-1.07531	-0.0455221
O	0.0254361	-0.302532	-1.09573
H	0.716432	1.68121	-1.27696
H	0.42069	1.75132	1.46599
H	-0.504329	-0.756548	2.13694
H	-0.68067	-2.10655	-0.263594
C	5.50061	0.862879	-0.386875
C	4.82768	-0.0636937	-1.15484
N	4.11134	-0.913341	-0.379304
C	4.339	-0.515381	0.865051
N	5.17051	0.552256	0.913406
H	6.16876	1.69361	-0.664391
H	4.84622	-0.134363	-2.25462
H	3.92213	-0.970206	1.77806
H	5.5008	1.04879	1.7769
