18
  This energy is -1.493 and Call times are: 181619
C	0.820726	-0.767932	0.151959
C	0.481037	-0.296346	-1.08198
C	-0.576486	0.63903	-0.86556
C	-0.789679	0.656466	0.481518
O	0.0548178	-0.19681	1.11851
H	1.57946	-1.50129	0.47095
H	0.930117	-0.57883	-2.0477
H	-1.11037	1.22597	-1.63013
H	-1.50239	1.22459	1.10163
C	4.55957	-0.438691	-1.06079
C	4.41982	0.891837	-0.727153
N	4.11789	1.03722	0.585938
C	4.07051	-0.198411	1.06509
N	4.32978	-1.12397	0.111299
H	4.79832	-0.929992	-2.01742
H	4.53144	1.7495	-1.41038
H	3.85041	-0.482156	2.10686
H	4.35159	-2.16521	0.240119
