18
  This energy is -0.8621 and Call times are: 101089
C	0.3948	-1.01334	0.321974
C	0.470999	0.0882671	1.12261
C	-0.122051	1.15384	0.378999
C	-0.508302	0.609322	-0.810405
O	-0.200408	-0.713368	-0.862405
H	0.723254	-2.05414	0.477267
H	0.901629	0.144823	2.13526
H	-0.242656	2.20084	0.700464
H	-1.00502	1.05117	-1.68978
C	5.98357	-0.607288	-0.634278
C	5.97609	0.753276	-0.410777
N	4.92647	1.11503	0.366357
C	4.28523	-0.0168134	0.623989
N	4.88334	-1.08372	0.0429919
H	6.67104	-1.24879	-1.20821
H	6.70925	1.48037	-0.796344
H	3.37252	-0.121208	1.23251
H	4.56887	-2.08339	0.09798
