18
  This energy is -1.1689 and Call times are: 10109
C	0.170025	-0.985501	-0.535052
C	-0.942865	-0.744529	0.215802
C	-0.794969	0.584065	0.718874
C	0.395241	1.03769	0.231029
O	0.998072	0.0921577	-0.536803
H	0.486127	-1.87112	-1.11039
H	-1.78359	-1.43327	0.39721
H	-1.49823	1.13024	1.36788
H	0.917125	2.00069	0.355666
C	4.54605	0.530938	-1.01917
C	5.50748	-0.434114	-0.805915
N	5.52788	-0.825227	0.491438
C	4.5827	-0.105548	1.08078
N	3.96176	0.727261	0.212192
H	4.24631	1.07378	-1.92967
H	6.18679	-0.855188	-1.56492
H	4.30388	-0.148773	2.14597
H	3.18352	1.39524	0.434426
