18
  This energy is -1.292 and Call times are: 87050
C	0.791582	-0.0778516	0.808541
C	0.423389	-1.14407	0.041733
C	-0.582301	-0.657093	-0.847964
C	-0.739892	0.663716	-0.546298
O	0.0912662	1.03444	0.463034
H	1.52956	0.0176209	1.62189
H	0.820187	-2.17051	0.0970678
H	-1.12029	-1.2309	-1.6196
H	-1.40124	1.43676	-0.970877
C	5.06269	-0.625628	0.744662
C	4.39841	0.551533	1.017
N	3.7301	0.999062	-0.0736816
C	3.97883	0.102945	-1.01905
N	4.7777	-0.896204	-0.575094
H	5.6969	-1.26849	1.37557
H	4.38939	1.08594	1.98094
H	3.60117	0.129912	-2.05388
H	5.11561	-1.72003	-1.13043
