18
  This energy is -1.329 and Call times are: 65680
C	0.35409	0.398752	-1.00101
C	0.689274	0.99096	0.181072
C	0.0634453	0.210602	1.20063
C	-0.598927	-0.789585	0.551582
O	-0.432301	-0.690081	-0.793538
H	0.607998	0.65195	-2.04344
H	1.3145	1.8874	0.321025
H	0.106971	0.3817	2.28825
H	-1.2158	-1.62218	0.927759
C	4.5319	-0.724175	0.927171
C	4.02333	0.557021	0.894983
N	4.15008	1.10218	-0.339216
C	4.73505	0.162762	-1.06991
N	4.98576	-0.957524	-0.351793
H	4.60067	-1.46177	1.7425
H	3.56722	1.0978	1.74019
H	5.00244	0.242743	-2.1359
H	5.43944	-1.83642	-0.702482
