18
  This energy is -1.0376 and Call times are: 190729
C	-0.20826	0.760452	0.815317
C	-1.19116	-0.00954732	0.266333
C	-0.54648	-0.82915	-0.709759
C	0.773464	-0.487647	-0.671084
O	0.997961	0.48168	0.254668
H	-0.237819	1.53286	1.6013
H	-2.26268	-0.00121093	0.522987
H	-1.01877	-1.58263	-1.36038
H	1.64092	-0.855635	-1.24324
C	5.56551	-1.11538	-0.373943
C	6.68493	-0.401755	-0.00141166
N	6.35798	0.857935	0.376472
C	5.04074	0.925532	0.238893
N	4.51602	-0.23893	-0.210864
H	5.44546	-2.15036	-0.731626
H	7.72264	-0.773249	0.0014733
H	4.41036	1.80351	0.453385
H	3.50276	-0.436476	-0.399418
