18
  This energy is -0.7313 and Call times are: 127039
C	0.437412	-0.724834	0.754777
C	-0.878764	-0.748004	0.397682
C	-1.0428	0.299719	-0.559129
C	0.187617	0.870648	-0.702263
O	1.10359	0.257459	0.092722
H	1.01482	-1.34565	1.45936
H	-1.65614	-1.43407	0.770638
H	-1.97265	0.587504	-1.07552
H	0.536788	1.70763	-1.32899
C	4.69102	0.394034	-0.00156917
C	5.22573	-0.575912	-0.822812
N	6.53648	-0.78157	-0.546869
C	6.81388	0.0576004	0.441802
N	5.73396	0.78867	0.806356
H	3.67601	0.81726	0.0629443
H	4.68922	-1.13101	-1.6095
H	7.79157	0.177558	0.935722
H	5.698	1.51729	1.56073
