18
  This energy is -1.1489 and Call times are: 86089
C	-0.312411	0.808602	0.731412
C	0.886047	0.163919	0.823371
C	0.912243	-0.768855	-0.258001
C	-0.27252	-0.611834	-0.91531
O	-1.03279	0.347426	-0.324703
H	-0.764204	1.60338	1.34741
H	1.67272	0.328694	1.57709
H	1.72327	-1.47109	-0.509411
H	-0.687865	-1.11492	-1.80393
C	4.51358	0.760955	0.142473
C	4.64934	-0.172406	-0.863286
N	5.79429	-0.882935	-0.719226
C	6.36665	-0.392233	0.371755
N	5.63333	0.601061	0.927822
H	3.72566	1.50288	0.348056
H	3.94166	-0.345864	-1.6903
H	7.32288	-0.723687	0.807631
H	5.87225	1.14563	1.79247
