18
  This energy is -0.9272 and Call times are: 132795
C	-0.658275	0.50717	0.771916
C	0.511917	1.05588	0.336088
C	1.04411	0.135336	-0.617589
C	0.152146	-0.894636	-0.680352
O	-0.893654	-0.684136	0.161672
H	-1.40368	0.860388	1.50326
H	0.955812	2.01286	0.654256
H	1.98267	0.236687	-1.18586
H	0.147231	-1.82226	-1.27595
C	6.04021	0.897741	-0.411435
C	6.07278	0.374085	0.86366
N	5.20229	-0.656723	0.990933
C	4.63187	-0.772112	-0.200673
N	5.10333	0.142547	-1.08085
H	6.59881	1.72671	-0.874397
H	6.70878	0.721587	1.69408
H	3.86297	-1.50917	-0.483107
H	4.81089	0.254994	-2.0824
