18
  This energy is -0.9424 and Call times are: 69178
C	-0.081782	-0.309483	-1.08809
C	-1.16611	0.0713428	-0.353529
C	-0.667124	0.381154	0.948449
C	0.67808	0.162299	0.894576
O	1.05286	-0.259877	-0.341674
H	0.0130662	-0.634116	-2.13731
H	-2.21239	0.128369	-0.694339
H	-1.24959	0.726147	1.81782
H	1.46722	0.268738	1.65693
C	5.07434	-0.824874	-0.723525
C	4.56504	-0.458333	0.504238
N	5.3064	0.527023	1.06634
C	6.27196	0.770842	0.190626
N	6.17567	-0.0185337	-0.90537
H	4.74207	-1.57736	-1.45626
H	3.67593	-0.88721	0.994539
H	7.07537	1.51675	0.301863
H	6.81767	-0.0166643	-1.73549
