18
  This energy is -1.8335 and Call times are: 3156
C	0.537567	-0.737042	-0.673938
C	-0.474964	0.0589621	-1.12286
C	-0.88953	0.835837	0.00173421
C	-0.0937374	0.44599	1.03861
O	0.783655	-0.5139	0.643886
H	1.15496	-1.49325	-1.18602
H	-0.88844	0.0954052	-2.14355
H	-1.68834	1.59438	0.026351
H	-0.0531708	0.770725	2.0913
C	3.84299	-0.960522	0.661692
C	3.79503	0.351471	1.08302
N	4.02185	1.20371	0.0540656
C	4.2098	0.423393	-1.00159
N	4.11197	-0.890012	-0.68696
H	3.7092	-1.90777	1.20792
H	3.60083	0.698393	2.11102
H	4.42232	0.761571	-2.02857
H	4.22038	-1.70024	-1.34501
