18
  This energy is -1.1355 and Call times are: 131472
C	1.00779	-0.375825	0.359888
C	0.849637	0.847986	-0.221189
C	-0.540076	0.956206	-0.532801
C	-1.10848	-0.211026	-0.114637
O	-0.177787	-1.03618	0.433031
H	1.89998	-0.886105	0.758463
H	1.63302	1.59916	-0.411312
H	-1.04842	1.80797	-1.01256
H	-2.14994	-0.570729	-0.149638
C	5.92439	0.839532	0.394392
C	5.75648	-0.423349	0.921729
N	4.83982	-1.12951	0.216335
C	4.44057	-0.307836	-0.744954
N	5.0652	0.891856	-0.680437
H	6.57284	1.67678	0.697802
H	6.28034	-0.837625	1.79854
H	3.69327	-0.53382	-1.52258
H	4.92224	1.70663	-1.32616
