18
  This energy is -0.761 and Call times are: 113177
C	1.03182	0.377158	-0.281942
C	-0.0147627	1.21962	-0.0468151
C	-1.12621	0.382141	0.274783
C	-0.660699	-0.898165	0.207791
O	0.655283	-0.919924	-0.130926
H	2.08015	0.573609	-0.560641
H	-0.00507204	2.32039	-0.0950081
H	-2.1496	0.704471	0.525513
H	-1.15884	-1.86699	0.376563
C	6.09526	-0.914337	-0.441303
C	4.95431	-0.964873	0.331238
N	4.53548	0.279677	0.666188
C	5.41327	1.09918	0.10358
N	6.37324	0.427646	-0.575454
H	6.70859	-1.71178	-0.890126
H	4.42582	-1.87705	0.652936
H	5.40015	2.19972	0.157235
H	7.17628	0.848995	-1.10351
