18
  This energy is -1.9307 and Call times are: 45999
C	0.1451	1.06957	0.348372
C	-0.0494202	0.0378235	1.21902
C	-0.189052	-1.13299	0.412905
C	-0.0675319	-0.713347	-0.87919
O	0.136959	0.628973	-0.937248
H	0.299737	2.14815	0.51573
H	-0.0904633	0.0954529	2.31861
H	-0.359881	-2.16362	0.76321
H	-0.107178	-1.26384	-1.83347
C	4.42533	0.1129	-1.12539
C	5.04131	0.672124	-0.0258521
N	4.39909	0.334062	1.1186
C	3.38854	-0.431972	0.730527
N	3.36116	-0.595327	-0.613406
H	4.66109	0.167	-2.20011
H	5.93762	1.31347	-0.0378258
H	2.63864	-0.899208	1.38899
H	2.6624	-1.15488	-1.16104
