18
  This energy is -1.1873 and Call times are: 160507
C	-0.493768	0.972468	-0.311287
C	0.853644	0.77792	-0.394995
C	1.08751	-0.548325	0.0809235
C	-0.137633	-1.04715	0.413445
O	-1.11484	-0.131861	0.180377
H	-1.12448	1.83978	-0.566661
H	1.60727	1.49628	-0.755695
H	2.05851	-1.0627	0.162587
H	-0.442945	-2.02517	0.820265
C	5.16528	-0.274595	-1.14389
C	4.64435	0.854262	-0.547691
N	4.86467	0.846559	0.789437
C	5.51979	-0.282782	1.02187
N	5.72544	-0.993962	-0.111938
H	5.17664	-0.605872	-2.19444
H	4.11347	1.67414	-1.05839
H	5.87257	-0.637764	2.00359
H	6.21778	-1.91741	-0.19002
