18
  This energy is -0.9076 and Call times are: 141914
C	-0.943513	0.5019	0.379843
C	-0.0358939	1.15108	-0.404479
C	0.997815	0.202733	-0.673166
C	0.630628	-0.942257	-0.0293159
O	-0.55245	-0.777525	0.618913
H	-1.89459	0.835263	0.826589
H	-0.0889953	2.19323	-0.758327
H	1.90554	0.363394	-1.27675
H	1.11786	-1.92843	0.04358
C	4.96672	0.40051	-0.828842
C	6.1823	0.941878	-0.467692
N	6.76157	0.22359	0.524789
C	5.90859	-0.759644	0.778383
N	4.81062	-0.696732	-0.0116033
H	4.2264	0.708159	-1.58437
H	6.65173	1.83789	-0.905474
H	6.03855	-1.55284	1.53217
H	3.99568	-1.35784	-0.00315889
