18
  This energy is -1.6437 and Call times are: 80092
C	0.417045	1.05286	-0.0628566
C	0.304756	0.381044	1.11885
C	-0.25385	-0.892502	0.793026
C	-0.433604	-0.886502	-0.559019
O	-0.0292364	0.29374	-1.09803
H	0.793395	2.06218	-0.297136
H	0.58698	0.745716	2.11958
H	-0.490846	-1.71158	1.49091
H	-0.8345	-1.64919	-1.24665
C	4.59478	-0.0844723	-1.0645
C	4.23254	-1.12494	-0.235425
N	3.68898	-0.664582	0.917448
C	3.7139	0.656454	0.804021
N	4.2508	1.05571	-0.373232
H	5.05756	-0.0750419	-2.06414
H	4.35366	-2.19955	-0.448465
H	3.3518	1.37877	1.55327
H	4.38035	2.04529	-0.697601
