18
  This energy is -1.1904 and Call times are: 44602
C	-0.775833	-0.600149	0.569479
C	-0.205128	-1.05203	-0.583981
C	0.706689	-0.0322247	-0.994707
C	0.61269	0.952826	-0.0559779
O	-0.288056	0.622711	0.906671
H	-1.53111	-1.04822	1.23584
H	-0.406086	-2.00764	-1.09439
H	1.35326	-0.0399287	-1.88689
H	1.12611	1.92372	0.0389029
C	4.46334	-0.252094	-1.06342
C	4.29381	0.918991	-0.355634
N	4.93665	0.866995	0.83624
C	5.50283	-0.331788	0.867738
N	5.24687	-1.04469	-0.254689
H	4.09417	-0.567035	-2.05239
H	3.71918	1.8005	-0.683619
H	6.11553	-0.738411	1.6884
H	5.58153	-2.01613	-0.468187
