18
  This energy is -0.9661 and Call times are: 139251
C	-0.650545	-0.34318	-0.863377
C	0.678165	-0.641482	-0.786436
C	1.14347	-0.0442833	0.424747
C	0.0580216	0.566239	0.981023
O	-1.0462	0.393848	0.207725
H	-1.41345	-0.593313	-1.61879
H	1.27113	-1.22366	-1.51
H	2.16893	-0.071372	0.826967
H	-0.0574641	1.14705	1.91085
C	6.02032	-1.09788	-0.406549
C	6.98021	-0.108072	-0.399937
N	6.49859	1.03603	0.14374
C	5.24468	0.757053	0.473158
N	4.90852	-0.517124	0.161615
H	6.04878	-2.13968	-0.763456
H	8.01165	-0.198969	-0.777718
H	4.52868	1.44906	0.945072
H	3.9782	-0.975325	0.322272
