18
  This energy is -1.2405 and Call times are: 66990
C	0.127612	-1.12271	0.0982103
C	-1.09912	-0.528055	0.0546451
C	-0.85032	0.872824	-0.0708739
C	0.506483	1.01056	-0.0929314
O	1.1196	-0.198007	0.00932023
H	0.424534	-2.18042	0.189447
H	-2.08074	-1.02595	0.105771
H	-1.60068	1.67703	-0.136417
H	1.14958	1.90203	-0.176342
C	4.32677	0.0704421	-0.962749
C	4.22095	-0.853531	0.0552004
N	5.1602	-0.640025	1.00848
C	5.84609	0.4124	0.583531
N	5.38219	0.877368	-0.60061
H	3.7451	0.206322	-1.88835
H	3.48371	-1.6704	0.11888
H	6.69753	0.883585	1.1005
H	5.75539	1.6965	-1.14006
