18
  This energy is -1.2056 and Call times are: 86345
C	0.0631269	0.7503	-0.848214
C	-0.797993	-0.307209	-0.871044
C	-0.585408	-1.01105	0.353513
C	0.386853	-0.32151	1.01655
O	0.794514	0.7571	0.297229
H	0.24877	1.55779	-1.57536
H	-1.51134	-0.565708	-1.67005
H	-1.10115	-1.92376	0.692719
H	0.868288	-0.493337	1.99325
C	4.74447	-0.413647	1.07435
C	3.75084	-0.852407	0.225037
N	3.7539	-0.150694	-0.934317
C	4.74566	0.720078	-0.80473
N	5.37375	0.601497	0.389017
H	5.03849	-0.741042	2.08425
H	3.03179	-1.66272	0.428032
H	5.05488	1.46716	-1.55338
H	6.18544	1.17382	0.727922
