18
  This energy is -2.4552 and Call times are: 50059
C	0.151917	-0.875174	-0.70526
C	0.414011	-0.959589	0.630612
C	0.103871	0.325313	1.17187
C	-0.320369	1.08149	0.118967
O	-0.29743	0.364277	-1.0352
H	0.24282	-1.61616	-1.51639
H	0.788206	-1.83851	1.17978
H	0.189792	0.640705	2.22412
H	-0.660996	2.12832	0.0609385
C	3.93296	-1.12616	0.0774299
C	4.08934	-0.149122	1.03768
N	3.59012	1.03721	0.613529
C	3.12581	0.797055	-0.605225
N	3.3089	-0.492903	-0.974106
H	4.21229	-2.19173	0.0682615
H	4.55344	-0.278948	2.02895
H	2.64237	1.52982	-1.27124
H	3.02883	-0.927787	-1.88717
