18
  This energy is -1.2744 and Call times are: 23355
C	-0.0477187	1.11484	0.203105
C	-1.16645	0.33905	0.119688
C	-0.704208	-0.986786	-0.142245
C	0.656189	-0.904152	-0.195768
O	1.07436	0.372007	0.0129552
H	0.0817151	2.1934	0.39077
H	-2.21227	0.667486	0.231399
H	-1.32038	-1.8907	-0.273999
H	1.42879	-1.67037	-0.372556
C	4.46474	-1.11595	0.335578
C	4.39815	-0.641926	-0.957485
N	4.19915	0.698422	-0.976913
C	4.1425	1.05456	0.299246
N	4.29721	-0.00362606	1.12985
H	4.6145	-2.13221	0.733486
H	4.49014	-1.24304	-1.87675
H	3.98956	2.07678	0.681238
H	4.29077	0.0189667	2.17899
