18
  This energy is -0.8744 and Call times are: 98873
C	0.929663	0.602082	-0.244181
C	0.726358	0.0366307	0.98028
C	-0.535413	-0.627839	0.899466
C	-0.991772	-0.409779	-0.367246
O	-0.109664	0.339542	-1.07958
H	1.76144	1.2069	-0.641167
H	1.39759	0.0828109	1.85287
H	-1.03699	-1.19928	1.69694
H	-1.91562	-0.72951	-0.876677
C	5.99255	0.588887	-0.940323
C	4.71721	0.104434	-0.740443
N	4.61537	-0.524741	0.4555
C	5.82295	-0.430966	0.995497
N	6.6889	0.231793	0.192711
H	6.43898	1.14397	-1.78064
H	3.86872	0.197616	-1.43774
H	6.12763	-0.829993	1.9764
H	7.69842	0.43492	0.394886
