18
  This energy is -0.9782 and Call times are: 50345
C	0.153682	-0.249895	-1.0956
C	-1.0807	-0.23711	-0.515507
C	-0.8666	0.116792	0.851618
C	0.479719	0.289031	0.986271
O	1.11837	0.0691014	-0.193035
H	0.474226	-0.467097	-2.12774
H	-2.04525	-0.455035	-1.00156
H	-1.63214	0.227818	1.63629
H	1.09817	0.56425	1.85634
C	4.36068	-0.504259	0.498482
C	5.66787	-0.581077	0.930324
N	6.49325	0.121616	0.117008
C	5.70111	0.632424	-0.815845
N	4.40593	0.283869	-0.629788
H	3.4324	-0.940124	0.900799
H	6.03023	-1.13094	1.81417
H	6.01735	1.2687	-1.65809
H	3.59141	0.561168	-1.23056
