18
  This energy is -0.778 and Call times are: 185978
C	0.190704	0.637049	-0.918805
C	-0.986927	0.679744	-0.231973
C	-0.845899	-0.24895	0.844018
C	0.405461	-0.777174	0.719724
O	1.05263	-0.247414	-0.35151
H	0.534486	1.17928	-1.81494
H	-1.86666	1.30272	-0.460149
H	-1.59455	-0.489186	1.61597
H	0.94547	-1.52713	1.32073
C	5.69344	-0.280074	-1.0311
C	4.40701	-0.565007	-0.624832
N	4.17341	-0.0939368	0.624181
C	5.31059	0.481048	0.99137
N	6.25806	0.395349	0.0277625
H	6.2292	-0.502724	-1.96755
H	3.64323	-1.10205	-1.21057
H	5.50383	0.979612	1.95487
H	7.23638	0.771716	0.0777431
