18
  This energy is -1.339 and Call times are: 129065
C	0.807001	-0.744187	-0.285194
C	0.852338	-0.0257918	0.873351
C	-0.321033	0.78865	0.874561
C	-0.979819	0.496052	-0.283351
O	-0.30514	-0.438125	-1.00386
H	1.49522	-1.49472	-0.707458
H	1.63368	-0.0654183	1.64926
H	-0.630332	1.50604	1.65159
H	-1.92423	0.878734	-0.703932
C	5.38488	0.308876	-1.12049
C	6.15839	0.64733	-0.0304163
N	5.65223	0.119741	1.11062
C	4.56883	-0.543491	0.729854
N	4.36467	-0.459767	-0.606148
H	5.48489	0.552478	-2.19016
H	7.07264	1.26275	-0.0468095
H	3.88893	-1.10784	1.38825
H	3.57893	-0.897067	-1.1471
