18
  This energy is -0.8225 and Call times are: 98905
C	-0.415484	0.164582	-1.04244
C	-1.21712	0.0723288	0.0572125
C	-0.339044	-0.131243	1.16521
C	0.921659	-0.145419	0.644825
O	0.893736	0.0338357	-0.702061
H	-0.651171	0.320411	-2.108
H	-2.31649	0.140766	0.0853071
H	-0.622252	-0.252024	2.22318
H	1.90773	-0.272839	1.12093
C	4.59766	0.669762	0.827145
C	5.28863	-0.507329	1.02251
N	5.73273	-1.01414	-0.153261
C	5.31885	-0.154732	-1.07453
N	4.62981	0.877886	-0.533677
H	4.10188	1.35131	1.53654
H	5.47467	-0.999977	1.99077
H	5.49282	-0.2334	-2.15978
H	4.20165	1.68355	-1.05219
