18
  This energy is -1.6572 and Call times are: 156432
C	-0.0663604	1.09005	0.306253
C	-0.979946	0.161081	0.70968
C	-0.56318	-1.07528	0.128438
C	0.568294	-0.792688	-0.578868
O	0.886248	0.52504	-0.481348
H	0.015744	2.1706	0.508553
H	-1.85914	0.329565	1.35212
H	-1.05499	-2.05598	0.230621
H	1.23029	-1.43241	-1.18531
C	3.68083	0.71294	0.779279
C	4.46178	1.08807	-0.293353
N	4.89848	0.00570613	-0.982047
C	4.39037	-1.03693	-0.339108
N	3.64849	-0.662823	0.73012
H	3.16308	1.3078	1.54844
H	4.71796	2.12031	-0.582656
H	4.53013	-2.09622	-0.60856
H	3.14465	-1.29949	1.39499
