18
  This energy is -1.0218 and Call times are: 167482
C	1.09192	-0.202469	-0.230494
C	0.695442	0.496151	0.871828
C	-0.731037	0.540614	0.814377
C	-1.08034	-0.13476	-0.317979
O	0.0204426	-0.595435	-0.968421
H	2.0929	-0.483367	-0.597071
H	1.34258	0.936046	1.64758
H	-1.4098	1.02184	1.53673
H	-2.06416	-0.353791	-0.764493
C	5.05482	-0.239029	0.879014
C	6.41589	-0.459128	0.86508
N	6.96262	-0.0647884	-0.310544
C	5.9446	0.398187	-1.02322
N	4.7728	0.31477	-0.34979
H	4.2924	-0.430901	1.65067
H	7.01319	-0.8954	1.68224
H	6.00131	0.809859	-2.04378
H	3.82922	0.614801	-0.697482
