18
  This energy is -0.6589 and Call times are: 1197
C	-0.230799	-0.984512	0.513681
C	-1.02475	0.115768	0.652976
C	-0.414255	1.14046	-0.132785
C	0.698864	0.575898	-0.682884
O	0.826447	-0.721476	-0.298756
H	-0.308575	-2.00027	0.934917
H	-1.94772	0.197595	1.24924
H	-0.769774	2.17473	-0.266881
H	1.47053	0.9859	-1.35496
C	4.7245	0.182154	-0.765127
C	5.36905	1.13364	-0.00329452
N	6.32968	0.571791	0.770031
C	6.28127	-0.723319	0.489017
N	5.32965	-1.0088	-0.431052
H	3.90534	0.265489	-1.49695
H	5.15815	2.21546	0.00221954
H	6.91985	-1.50666	0.928133
H	5.09714	-1.95677	-0.816481
