18
  This energy is -1.0089 and Call times are: 180915
C	-0.245483	0.482796	-0.996517
C	-1.15741	0.387455	0.0132745
C	-0.484326	-0.271418	1.08704
C	0.779491	-0.52054	0.638618
O	0.942879	-0.0666422	-0.63193
H	-0.317924	0.913198	-2.00882
H	-2.19952	0.74521	0.0030345
H	-0.900816	-0.52608	2.07485
H	1.64358	-1.00689	1.12035
C	5.95051	-0.464483	0.515642
C	5.32311	0.717445	0.848148
N	4.25604	0.947013	0.0449132
C	4.2216	-0.0885601	-0.78275
N	5.22251	-0.967513	-0.539427
H	6.83405	-0.966471	0.940971
H	5.62127	1.40866	1.65323
H	3.48494	-0.253075	-1.58556
H	5.40853	-1.8618	-1.05606
