18
  This energy is -1.0927 and Call times are: 133666
C	0.0317146	-1.12075	-0.171195
C	1.11019	-0.316659	-0.396341
C	0.685073	1.00769	-0.0715571
C	-0.615662	0.89598	0.323388
O	-1.03106	-0.396874	0.268723
H	-0.105368	-2.20871	-0.284337
H	2.10527	-0.625171	-0.755136
H	1.285	1.93015	-0.128469
H	-1.34426	1.65072	0.662151
C	5.00201	-0.916562	-0.432912
C	6.22223	-0.444566	-0.868144
N	6.61829	0.628738	-0.14174
C	5.64747	0.821856	0.740777
N	4.65012	-0.0840817	0.606001
H	4.37992	-1.75788	-0.777479
H	6.82392	-0.859243	-1.69328
H	5.61629	1.6119	1.5083
H	3.77545	-0.141397	1.18299
