18
  This energy is -0.8615 and Call times are: 178632
C	-0.855535	-0.0296468	0.744031
C	-0.629582	-1.03495	-0.149665
C	0.5179	-0.638551	-0.902175
C	0.891862	0.573987	-0.401898
O	0.0641417	0.961123	0.604092
H	-1.62691	0.0980621	1.52115
H	-1.21248	-1.96258	-0.267194
H	1.00157	-1.19774	-1.71916
H	1.71709	1.25324	-0.671821
C	4.55385	-0.443437	-0.30664
C	5.10338	-0.417966	0.957683
N	6.32483	0.168954	0.947837
C	6.53227	0.506307	-0.31778
N	5.49343	0.158365	-1.11361
H	3.59272	-0.834193	-0.676875
H	4.6404	-0.812567	1.87681
H	7.42754	1.0101	-0.716424
H	5.4181	0.31684	-2.14825
