18
  This energy is -1.0202 and Call times are: 15774
C	-0.279886	-0.599662	0.921125
C	-0.111027	-1.1772	-0.302931
C	0.230949	-0.113856	-1.19314
C	0.240879	1.0196	-0.434496
O	-0.0688728	0.741477	0.859224
H	-0.546712	-1.02816	1.90115
H	-0.216688	-2.2449	-0.553805
H	0.443152	-0.193193	-2.27146
H	0.449879	2.07064	-0.693111
C	4.77736	-0.842416	0.755866
C	3.95837	0.0944579	0.16201
N	4.66467	0.913195	-0.654891
C	5.91706	0.485868	-0.568148
N	6.0369	-0.570824	0.270082
H	4.56025	-1.65604	1.4661
H	2.8705	0.19431	0.30835
H	6.78545	0.91057	-1.09707
H	6.92088	-1.08521	0.505141
