18
  This energy is -1.0825 and Call times are: 128845
C	-0.801543	-0.101778	0.795972
C	0.207365	-1.00878	0.65517
C	1.0018	-0.543536	-0.43686
C	0.408236	0.606702	-0.866982
O	-0.694449	0.891526	-0.12538
H	-1.64577	-0.0511856	1.50306
H	0.375296	-1.91458	1.25967
H	1.90816	-1.0169	-0.847398
H	0.669396	1.30464	-1.67934
C	4.6152	0.0722956	-1.06997
C	5.26669	1.07745	-0.387047
N	5.7004	0.645215	0.821911
C	5.31943	-0.623257	0.888736
N	4.6613	-1.01603	-0.227588
H	4.13797	0.0550247	-2.06269
H	5.43155	2.10679	-0.744992
H	5.49653	-1.31016	1.73196
H	4.26218	-1.9682	-0.415579
