18
  This energy is -0.6756 and Call times are: 109831
C	0.124596	-0.4802	1.01994
C	-0.989068	-0.668199	0.255232
C	-0.775745	0.0866885	-0.938399
C	0.449446	0.669348	-0.797729
O	1.01357	0.333973	0.392356
H	0.401685	-0.865173	2.01507
H	-1.87219	-1.27735	0.506488
H	-1.46058	0.179198	-1.79662
H	1.02335	1.33473	-1.46343
C	5.58242	-0.54449	-0.789259
C	4.57028	0.354601	-1.05073
N	3.99147	0.785905	0.0962115
C	4.64206	0.156776	1.06552
N	5.61082	-0.656944	0.582869
H	6.26182	-1.09392	-1.46014
H	4.24731	0.699805	-2.0464
H	4.44973	0.255386	2.14604
H	6.25989	-1.25883	1.14652
