18
  This energy is -0.7961 and Call times are: 39306
C	0.784434	-0.773301	-0.270314
C	1.078	0.340377	0.460381
C	-0.150386	1.05743	0.590857
C	-1.08616	0.318635	-0.0716235
O	-0.532746	-0.802789	-0.603747
H	1.41537	-1.60917	-0.61454
H	2.06096	0.628073	0.866731
H	-0.309201	2.01162	1.11848
H	-2.16439	0.480477	-0.234306
C	6.29396	-0.933045	0.654301
C	5.01933	-0.501144	0.354424
N	5.04964	0.607661	-0.424128
C	6.33817	0.862663	-0.60655
N	7.12897	-0.0379299	0.0236597
H	6.6539	-1.78559	1.25191
H	4.07836	-0.969728	0.685885
H	6.75784	1.69602	-1.19274
H	8.17827	-0.0516873	0.0305574
