18
  This energy is -1.0537 and Call times are: 112394
C	0.0346046	-0.970308	-0.586264
C	-0.82043	-0.778543	0.45897
C	-0.56908	0.545583	0.931867
C	0.417362	1.04608	0.133866
O	0.798023	0.133793	-0.798785
H	0.194752	-1.83534	-1.25059
H	-1.5545	-1.49741	0.857041
H	-1.06952	1.05748	1.76949
H	0.927239	2.02344	0.127528
C	5.58756	1.00969	0.142781
C	5.93453	-0.227474	0.642962
N	5.0299	-1.17069	0.284466
C	4.12518	-0.521134	-0.435378
N	4.41665	0.796269	-0.549757
H	6.07477	1.99404	0.227812
H	6.82138	-0.456398	1.25609
H	3.22952	-0.961704	-0.902212
H	3.85725	1.51766	-1.06737
