18
  This energy is -1.1454 and Call times are: 83671
C	-0.213169	-0.964494	0.557415
C	-0.992326	0.14646	0.695505
C	-0.412325	1.13868	-0.152556
C	0.670061	0.546474	-0.73402
O	0.806719	-0.738084	-0.311826
H	-0.278014	-1.96463	1.01651
H	-1.88586	0.256223	1.33083
H	-0.766755	2.17071	-0.305496
H	1.41223	0.926915	-1.45492
C	5.69168	0.493503	-0.39764
C	4.7553	1.07129	0.433321
N	3.73598	0.215993	0.690164
C	4.03885	-0.888193	0.0210856
N	5.20862	-0.770911	-0.650824
H	6.6361	0.879747	-0.812876
H	4.79694	2.08997	0.852129
H	3.43914	-1.81206	-0.0113726
H	5.66135	-1.50358	-1.2504
