18
  This energy is -0.8582 and Call times are: 154866
C	1.04342	0.00994647	-0.444506
C	0.584538	1.00767	0.364409
C	-0.750414	0.6422	0.71718
C	-0.989461	-0.546602	0.0926963
O	0.0952656	-0.947555	-0.621178
H	2.01214	-0.133578	-0.9507
H	1.13127	1.91045	0.680931
H	-1.44451	1.20527	1.3616
H	-1.8782	-1.19865	0.0773466
C	6.66953	-0.489492	-0.0398471
C	5.64868	-0.801522	0.832871
N	4.55299	-0.0402271	0.595374
C	4.89282	0.741118	-0.420815
N	6.15931	0.508525	-0.839733
H	7.68898	-0.893541	-0.144796
H	5.68311	-1.56233	1.62964
H	4.25259	1.50105	-0.8971
H	6.65763	0.995643	-1.62437
