18
  This energy is -0.6817 and Call times are: 171170
C	-0.445994	-0.849354	0.605051
C	-1.21732	0.0447079	-0.0776562
C	-0.306152	0.948146	-0.70511
C	0.941534	0.526408	-0.35044
O	0.874958	-0.570215	0.449557
H	-0.712583	-1.71725	1.2303
H	-2.31754	0.0658908	-0.133774
H	-0.559458	1.80907	-1.34444
H	1.94274	0.915552	-0.598234
C	4.96041	-0.239854	0.169987
C	5.82999	-0.905091	-0.668123
N	7.07019	-0.361217	-0.616907
C	6.97037	0.637626	0.24968
N	5.71807	0.751829	0.751968
H	3.89169	-0.396734	0.386237
H	5.58474	-1.76774	-1.30885
H	7.78324	1.31699	0.552896
H	5.38731	1.46074	1.45147
