18
  This energy is -0.6968 and Call times are: 150589
C	-0.987531	0.368988	0.418369
C	-0.03974	1.21776	-0.0732059
C	1.04296	0.389779	-0.500197
C	0.661213	-0.891875	-0.231857
O	-0.576168	-0.923244	0.329316
H	-1.98264	0.557438	0.853674
H	-0.0972637	2.31668	-0.129483
H	1.9918	0.719091	-0.953359
H	1.17257	-1.85548	-0.390667
C	5.55508	-0.140477	-1.08047
C	4.88422	-0.283088	0.115673
N	5.70531	-0.0469142	1.1676
C	6.88109	0.241117	0.6261
N	6.84214	0.197998	-0.726754
H	5.2189	-0.252176	-2.12356
H	3.82245	-0.552161	0.238504
H	7.80385	0.491	1.1741
H	7.64031	0.386495	-1.38147
