18
  This energy is -0.8879 and Call times are: 64705
C	-0.057462	-0.710132	-0.882503
C	-1.00138	0.24725	-0.652685
C	-0.586698	0.928723	0.532115
C	0.574017	0.327622	0.921721
O	0.912064	-0.675384	0.0692453
H	0.0369306	-1.46776	-1.6777
H	-1.89957	0.452935	-1.25688
H	-1.09944	1.76783	1.02919
H	1.2454	0.518196	1.77506
C	6.08034	-0.960285	-0.00931559
C	6.49828	0.348887	0.102637
N	5.44542	1.20175	0.0778156
C	4.37836	0.424626	-0.0490529
N	4.70865	-0.887342	-0.105983
H	6.64318	-1.9071	-0.026464
H	7.54066	0.693337	0.200875
H	3.33158	0.764217	-0.10523
H	4.04606	-1.69508	-0.204912
