18
  This energy is -0.8291 and Call times are: 67950
C	-0.29721	0.991551	0.463566
C	0.265527	-0.0154927	1.19128
C	0.493701	-1.0831	0.270263
C	0.0502553	-0.634211	-0.938963
O	-0.436039	0.630943	-0.839392
H	-0.639001	1.99916	0.751939
H	0.496752	-0.00735034	2.26857
H	0.937012	-2.06729	0.491481
H	0.0259454	-1.11207	-1.93209
C	5.20935	-1.15843	0.0823172
C	4.27079	-0.18153	-0.174407
N	4.83973	1.04818	-0.199334
C	6.12636	0.834971	0.0410129
N	6.39964	-0.479428	0.217831
H	5.11753	-2.25228	0.175073
H	3.1933	-0.341975	-0.342092
H	6.91189	1.60559	0.0984856
H	7.33922	-0.900954	0.419693
