18
  This energy is -0.8606 and Call times are: 197300
C	-1.0906	0.297619	0.0917881
C	-0.534855	-0.0837923	-1.09398
C	0.833667	-0.376381	-0.808224
C	0.993401	-0.147938	0.526944
O	-0.171614	0.264286	1.09247
H	-2.11472	0.612121	0.351608
H	-1.03813	-0.152233	-2.0718
H	1.60242	-0.716781	-1.52043
H	1.87344	-0.240544	1.18437
C	6.29767	-0.0794973	-1.06353
C	4.96218	-0.240448	-0.760734
N	4.73925	-0.0800375	0.566325
C	5.93191	0.17944	1.08483
N	6.90445	0.190777	0.142687
H	6.84108	-0.136271	-2.0201
H	4.15548	-0.469442	-1.47604
H	6.1496	0.368934	2.14828
H	7.92607	0.371098	0.300933
