18
  This energy is -1.1778 and Call times are: 4191
C	-0.153645	0.817582	-0.770943
C	0.65781	-0.255395	-0.995966
C	0.59253	-1.05028	0.188942
C	-0.253054	-0.392883	1.03344
O	-0.718095	0.749877	0.463489
H	-0.409687	1.68539	-1.40071
H	1.24358	-0.465991	-1.90515
H	1.11763	-1.99972	0.381123
H	-0.599928	-0.631087	2.05236
C	5.7288	0.613951	0.566783
C	4.90978	-0.358773	1.09985
N	4.07003	-0.858792	0.161071
C	4.36696	-0.198776	-0.95016
N	5.36083	0.700463	-0.757338
H	6.52103	1.23018	1.02085
H	4.90975	-0.708753	2.14501
H	3.88757	-0.334572	-1.933
H	5.77263	1.34144	-1.47902
