18
  This energy is -1.3087 and Call times are: 18770
C	0.288697	0.868113	0.670399
C	-0.906194	0.220862	0.787351
C	-0.899634	-0.796358	-0.215314
C	0.298686	-0.68092	-0.856466
O	1.03712	0.330518	-0.328532
H	0.71952	1.71455	1.23004
H	-1.71144	0.437962	1.50745
H	-1.69878	-1.52476	-0.427185
H	0.738636	-1.24985	-1.69194
C	4.4109	1.16143	-0.0205281
C	4.05381	0.247646	-0.989359
N	4.42678	-1.00713	-0.638747
C	5.01303	-0.872297	0.543099
N	5.02853	0.416262	0.958991
H	4.27379	2.25284	0.0392075
H	3.53373	0.471271	-1.93507
H	5.44834	-1.68425	1.14764
H	5.43381	0.778627	1.8566
