18
  This energy is -1.3512 and Call times are: 176039
C	-0.597699	-0.383741	-0.884251
C	-0.0864892	0.880063	-0.841366
C	0.590788	0.985558	0.411743
C	0.433665	-0.223091	1.02399
O	-0.289629	-1.07146	0.246741
H	-1.19047	-0.906937	-1.65246
H	-0.177229	1.65979	-1.61459
H	1.12957	1.86335	0.803271
H	0.783261	-0.599501	1.99937
C	5.51693	-0.503591	0.719926
C	6.67286	0.153817	1.08434
N	7.33886	0.610792	-0.00382852
C	6.59893	0.238296	-1.03938
N	5.48973	-0.436744	-0.655202
H	4.73776	-0.997778	1.32177
H	7.03822	0.306586	2.11295
H	6.82291	0.433848	-2.10043
H	4.74996	-0.833587	-1.2849
