18
  This energy is -0.5617 and Call times are: 127460
C	0.946106	-0.453586	0.430748
C	-0.276494	-1.04096	0.574313
C	-1.20305	-0.183661	-0.0940074
C	-0.464855	0.85192	-0.586977
O	0.849729	0.703325	-0.27585
H	1.94743	-0.754754	0.779897
H	-0.503133	-1.9834	1.09828
H	-2.29091	-0.329244	-0.191241
H	-0.75274	1.7436	-1.16773
C	6.52272	-0.726732	-0.578476
C	5.19961	-0.953213	-0.263442
N	4.67038	0.098103	0.408244
C	5.6614	0.973463	0.509521
N	6.79924	0.52269	-0.069883
H	7.2624	-1.34561	-1.11084
H	4.61739	-1.85636	-0.508771
H	5.60824	1.95983	0.997875
H	7.71719	1.02858	-0.121789
