18
  This energy is -1.1266 and Call times are: 142330
C	0.00690762	1.13283	-0.0551311
C	-0.965596	0.439521	0.603601
C	-0.633172	-0.941153	0.450791
C	0.513125	-0.969668	-0.287832
O	0.918204	0.288097	-0.605558
H	0.161104	2.21431	-0.203035
H	-1.8303	0.858346	1.14301
H	-1.1889	-1.80565	0.848161
H	1.12986	-1.80926	-0.648357
C	5.17383	-0.196884	-1.15796
C	6.1555	-0.421515	-0.216154
N	5.72904	-0.0822534	1.02463
C	4.48752	0.351198	0.85322
N	4.10637	0.301791	-0.445191
H	5.15979	-0.351448	-2.24858
H	7.16384	-0.822302	-0.40971
H	3.81289	0.716253	1.64432
H	3.17512	0.588697	-0.8347
