18
  This energy is -0.9769 and Call times are: 168891
C	-0.94234	0.630211	-0.0350733
C	-0.230645	0.443762	1.11345
C	0.870349	-0.394464	0.75946
C	0.734263	-0.646246	-0.574129
O	-0.367394	-0.028313	-1.07565
H	-1.86254	1.20148	-0.240363
H	-0.458155	0.855224	2.10996
H	1.6662	-0.762127	1.42694
H	1.34599	-1.24129	-1.27196
C	4.66117	0.330241	0.628201
C	5.82644	1.04399	0.444176
N	6.69847	0.362575	-0.337961
C	6.07656	-0.769599	-0.638011
N	4.84497	-0.836797	-0.0792082
H	3.74472	0.562462	1.19364
H	6.05357	2.03842	0.861744
H	6.47726	-1.58383	-1.26307
H	4.16051	-1.6273	-0.167935
