18
  This energy is -0.9144 and Call times are: 87338
C	-0.477468	-0.129596	-1.0206
C	0.82459	-0.454501	-0.776768
C	1.05104	-0.154263	0.601163
C	-0.132621	0.327609	1.07772
O	-1.07721	0.349624	0.100854
H	-1.08723	-0.191698	-1.93689
H	1.55255	-0.864464	-1.49517
H	1.9895	-0.285156	1.16354
H	-0.427294	0.683258	2.07869
C	5.04759	-0.811475	-0.00225846
C	4.89542	0.548024	0.170226
N	6.09071	1.1843	0.115745
C	6.98101	0.223177	-0.0897565
N	6.40175	-0.998248	-0.168288
H	4.31259	-1.63188	-0.0180764
H	3.94459	1.08119	0.333007
H	8.06996	0.358427	-0.190465
H	6.89098	-1.9132	-0.325667
