18
  This energy is -1.0306 and Call times are: 82564
C	0.151868	0.914106	0.654024
C	-1.0854	0.490823	0.266245
C	-0.867681	-0.671201	-0.535264
C	0.483412	-0.855434	-0.56652
O	1.12169	0.103594	0.154503
H	0.47129	1.76602	1.27649
H	-2.0542	0.950742	0.519237
H	-1.63411	-1.29137	-1.02727
H	1.10577	-1.62037	-1.05927
C	4.63211	-0.884877	-0.394977
C	5.97675	-0.933649	-0.0937861
N	6.42518	0.270756	0.336128
C	5.36278	1.06369	0.301775
N	4.25696	0.413734	-0.132176
H	3.93876	-1.65664	-0.765375
H	6.63135	-1.8163	-0.178983
H	5.33887	2.12869	0.583635
H	3.29676	0.821382	-0.246628
