18
  This energy is -2.5848 and Call times are: 30530
C	-0.0273664	1.01809	0.499139
C	-0.172602	-0.143067	1.19985
C	-0.0822288	-1.19449	0.237318
C	0.110255	-0.583024	-0.966606
O	0.146355	0.768185	-0.825391
H	-0.0287994	2.07205	0.82227
H	-0.327806	-0.248601	2.2856
H	-0.153432	-2.27731	0.428413
H	0.234568	-0.992013	-1.98274
C	4.2486	-0.165471	1.1557
C	5.14692	0.405531	0.27927
N	4.64786	0.437316	-0.98027
C	3.44451	-0.111878	-0.885588
N	3.15723	-0.49178	0.381982
H	4.30678	-0.356333	2.23908
H	6.1462	0.795138	0.533196
H	2.73231	-0.26033	-1.71321
H	2.27182	-0.947982	0.712413
