18
  This energy is -0.8111 and Call times are: 166505
C	-0.886834	-0.526672	-0.471744
C	-0.943229	0.772408	-0.0599374
C	0.348532	1.07048	0.471685
C	1.08027	-0.0727653	0.337815
O	0.341546	-1.05841	-0.236475
H	-1.64213	-1.17836	-0.940867
H	-1.80775	1.45254	-0.124097
H	0.684693	2.02767	0.901664
H	2.12233	-0.309718	0.608392
C	6.07318	-0.921186	0.559115
C	4.94985	-0.926275	-0.240411
N	4.68906	0.312318	-0.724552
C	5.64697	1.08286	-0.227264
N	6.50643	0.38589	0.553215
H	6.57809	-1.72828	1.11338
H	4.32287	-1.80147	-0.476602
H	5.7662	2.16419	-0.402653
H	7.34337	0.768336	1.05772
