18
  This energy is -1.3189 and Call times are: 26746
C	0.220451	0.23759	-1.0869
C	-0.965573	0.559067	-0.494976
C	-0.864255	0.105148	0.855509
C	0.374739	-0.45364	0.96963
O	1.05091	-0.381471	-0.207061
H	0.591137	0.393239	-2.11336
H	-1.82552	1.06509	-0.962452
H	-1.63003	0.189253	1.6433
H	0.886399	-0.929574	1.82224
C	4.12557	1.15665	-0.129749
C	3.93686	0.179188	-1.08374
N	4.23399	-1.04794	-0.591426
C	4.60563	-0.832578	0.663218
N	4.55727	0.480711	0.989598
H	3.9878	2.24897	-0.166945
H	3.59163	0.337414	-2.11846
H	4.92288	-1.60078	1.38672
H	4.802	0.903479	1.91838
