18
  This energy is -1.0171 and Call times are: 61733
C	0.718154	0.75077	-0.454972
C	-0.52313	0.521517	-0.971722
C	-1.11617	-0.474549	-0.137294
C	-0.184937	-0.766047	0.815702
O	0.941484	-0.0269742	0.63693
H	1.52597	1.43241	-0.7681
H	-0.975738	1.0053	-1.85217
H	-2.12001	-0.916604	-0.242152
H	-0.202279	-1.47033	1.6636
C	5.15605	1.06004	0.231135
C	4.37231	0.714073	-0.849234
N	4.02129	-0.593906	-0.799344
C	4.58513	-1.05761	0.307765
N	5.28035	-0.0988892	0.96436
H	5.6187	2.01702	0.520423
H	4.05383	1.3848	-1.66382
H	4.52092	-2.09111	0.684566
H	5.81264	-0.216082	1.86113
