18
  This energy is -1.7245 and Call times are: 195017
C	-0.378349	0.779217	0.732171
C	0.187621	1.11375	-0.462878
C	0.531029	-0.121575	-1.0923
C	0.144594	-1.10194	-0.226317
O	-0.412735	-0.569823	0.893168
H	-0.790525	1.39942	1.54501
H	0.347268	2.12861	-0.861207
H	1.00987	-0.254937	-2.07567
H	0.210235	-2.20057	-0.289251
C	5.01383	-0.815011	-0.241924
C	4.59804	0.209325	-1.06594
N	3.64394	0.962101	-0.466342
C	3.46849	0.406879	0.725115
N	4.27141	-0.667963	0.908459
H	5.76059	-1.61162	-0.38788
H	4.9694	0.418692	-2.08236
H	2.76501	0.747095	1.50204
H	4.31927	-1.27386	1.76395
