18
  This energy is -2.5697 and Call times are: 79130
C	0.14632	-0.811619	0.77863
C	0.315796	0.511722	1.06222
C	0.0462852	1.20993	-0.154332
C	-0.264094	0.251617	-1.07394
O	-0.207951	-0.988778	-0.521415
H	0.246521	-1.71245	1.40609
H	0.601897	0.952035	2.03091
H	0.0818783	2.29922	-0.316412
H	-0.538891	0.322268	-2.13918
C	4.58095	0.747995	0.82491
C	5.30485	-0.260004	0.224037
N	4.55197	-0.928244	-0.683231
C	3.36551	-0.337051	-0.645346
N	3.33228	0.679646	0.248417
H	4.8568	1.48455	1.59623
H	6.35689	-0.517068	0.428901
H	2.48585	-0.608612	-1.25089
H	2.51166	1.29803	0.461601
