18
  This energy is -1.2927 and Call times are: 64673
C	0.554588	-0.977986	0.149589
C	-0.449411	-0.573308	0.979405
C	-0.891392	0.686882	0.47276
C	-0.118464	0.941043	-0.621936
O	0.770049	-0.0652277	-0.834007
H	1.18534	-1.88208	0.151945
H	-0.839622	-1.10853	1.85996
H	-1.69242	1.323	0.882389
H	-0.102682	1.79038	-1.32453
C	3.938	0.243106	0.632889
C	5.19868	-0.0349476	1.11716
N	6.07001	-0.268656	0.105892
C	5.35262	-0.136093	-1.00153
N	4.06094	0.172272	-0.736803
H	2.99358	0.478517	1.14882
H	5.49514	-0.0711142	2.17813
H	5.72327	-0.254047	-2.03252
H	3.29841	0.327771	-1.44081
