18
  This energy is -0.9719 and Call times are: 153042
C	-0.537011	0.820025	-0.570595
C	-1.00664	-0.459338	-0.515337
C	-0.0711369	-1.18508	0.283566
C	0.887581	-0.285144	0.645982
O	0.618989	0.944422	0.133111
H	-0.92799	1.7214	-1.07051
H	-1.92019	-0.852546	-0.989584
H	-0.115142	-2.25286	0.551894
H	1.79826	-0.393573	1.25766
C	5.02693	-0.233439	-1.13097
C	4.85044	1.01003	-0.561947
N	4.60459	0.908847	0.766898
C	4.62846	-0.392438	1.02128
N	4.87932	-1.12342	-0.0906209
H	5.24002	-0.537834	-2.16803
H	4.8961	1.97837	-1.08642
H	4.46858	-0.864267	2.00416
H	4.94823	-2.16893	-0.149061
