18
  This energy is -1.8081 and Call times are: 29023
C	0.743745	-0.709108	-0.48001
C	0.634213	-0.571267	0.872534
C	-0.39392	0.397225	1.08486
C	-0.821905	0.765719	-0.156674
O	-0.138006	0.0999552	-1.12417
H	1.40108	-1.34093	-1.09966
H	1.21878	-1.09868	1.64338
H	-0.764995	0.770015	2.05307
H	-1.59511	1.48146	-0.480887
C	3.95995	0.558423	0.606271
C	5.12178	1.10629	0.105146
N	5.86233	0.173804	-0.541811
C	5.16258	-0.948289	-0.442418
N	4.0075	-0.768406	0.240961
H	3.13035	1.00397	1.17793
H	5.43895	2.15771	0.198812
H	5.44973	-1.93022	-0.851803
H	3.28568	-1.50024	0.452259
