18
  This energy is -0.9232 and Call times are: 110826
C	0.119081	-0.954602	-0.600796
C	-1.10295	-0.453181	-0.260804
C	-0.84357	0.739417	0.481186
C	0.514064	0.861497	0.529113
O	1.11792	-0.16439	-0.12657
H	0.407938	-1.85331	-1.17013
H	-2.08819	-0.880285	-0.507742
H	-1.58772	1.42083	0.923923
H	1.16382	1.62218	0.992181
C	5.06317	-0.883867	0.764951
C	4.34206	0.290483	0.719751
N	4.76623	1.08569	-0.292293
C	5.74676	0.40725	-0.87273
N	5.96405	-0.786668	-0.271952
H	5.00109	-1.75287	1.43913
H	3.52332	0.578226	1.39925
H	6.339	0.738176	-1.74104
H	6.68199	-1.50201	-0.544172
