18
  This energy is -0.668 and Call times are: 113273
C	-0.191508	0.744025	-0.834358
C	-1.19627	0.23334	-0.066222
C	-0.567919	-0.653985	0.860035
C	0.765346	-0.607201	0.576154
O	1.01321	0.241585	-0.455902
H	-0.203303	1.46276	-1.67014
H	-2.27199	0.458858	-0.144064
H	-1.0596	-1.25323	1.64314
H	1.62783	-1.1231	1.02916
C	5.27232	0.266499	1.1392
C	4.72209	-0.808743	0.474186
N	5.07699	-0.808047	-0.833696
C	5.84448	0.263552	-0.979504
N	5.99262	0.944708	0.181389
H	5.20455	0.586376	2.19116
H	4.07538	-1.58501	0.914661
H	6.32363	0.595886	-1.91449
H	6.54998	1.82227	0.324551
