18
  This energy is -1.1457 and Call times are: 103328
C	0.0397912	-1.05249	-0.420808
C	-1.11982	-0.485293	0.0196056
C	-0.768694	0.824546	0.468105
C	0.574487	0.942142	0.26217
O	1.08461	-0.194839	-0.280102
H	0.250835	-2.04554	-0.850417
H	-2.12193	-0.943331	0.0278219
H	-1.44444	1.58399	0.893198
H	1.27409	1.7716	0.456604
C	4.52574	0.461947	-0.75645
C	4.35996	0.302009	0.602992
N	5.45486	-0.264927	1.1654
C	6.29667	-0.455974	0.158688
N	5.78279	-0.0340963	-1.02094
H	3.86033	0.879715	-1.52862
H	3.46995	0.585533	1.18809
H	7.3023	-0.90086	0.229564
H	6.25246	-0.0767491	-1.95841
