18
  This energy is -0.848 and Call times are: 62374
C	0.63886	-0.269959	-0.89743
C	-0.354317	-1.08337	-0.436635
C	-0.92097	-0.409865	0.688268
C	-0.224046	0.755666	0.815581
O	0.732422	0.857596	-0.144518
H	1.34055	-0.3785	-1.7407
H	-0.657482	-2.05972	-0.847647
H	-1.75084	-0.760191	1.32285
H	-0.310794	1.58425	1.53751
C	5.11874	-0.0164749	-1.14268
C	4.38	0.533394	-0.116498
N	5.00398	0.372166	1.07563
C	6.12555	-0.275262	0.790098
N	6.24106	-0.532655	-0.534287
H	4.93147	-0.0750335	-2.22667
H	3.40795	1.04357	-0.214944
H	6.89742	-0.585455	1.51275
H	7.03442	-1.03056	-1.0075
