18
  This energy is -1.563 and Call times are: 154354
C	-0.397279	-0.966115	0.441805
C	0.903365	-0.818784	0.0584095
C	1.01531	0.51497	-0.440274
C	-0.22681	1.06494	-0.317595
O	-1.10193	0.174487	0.219313
H	-0.937752	-1.82076	0.880807
H	1.70367	-1.5736	0.120536
H	1.91966	0.999865	-0.841671
H	-0.611525	2.06608	-0.572462
C	4.50786	-0.0891982	1.15768
C	4.73821	-1.12312	0.275012
N	4.91939	-0.658597	-0.985109
C	4.80189	0.658487	-0.88457
N	4.55346	1.05124	0.387285
H	4.32095	-0.084436	2.2433
H	4.77691	-2.19593	0.524846
H	4.88878	1.38241	-1.71077
H	4.42084	2.03674	0.722629
