18
  This energy is -0.747 and Call times are: 127268
C	0.0390833	-0.974258	0.579391
C	-0.801882	-0.786435	-0.477905
C	-0.561908	0.544744	-0.936697
C	0.404518	1.05287	-0.119262
O	0.783251	0.138808	0.812433
H	0.200944	-1.84209	1.23963
H	-1.51924	-1.51246	-0.893086
H	-1.05621	1.05604	-1.77832
H	0.900278	2.03725	-0.0973823
C	5.47344	0.87185	-0.787133
C	4.32298	0.26611	-0.328156
N	4.60798	-0.702562	0.575702
C	5.93022	-0.697778	0.677068
N	6.49833	0.233784	-0.124826
H	5.63012	1.6847	-1.51395
H	3.29239	0.510668	-0.632997
H	6.53361	-1.35534	1.32341
H	7.5241	0.432185	-0.22327
