18
  This energy is -0.9265 and Call times are: 93424
C	-0.107433	0.873746	-0.715141
C	1.08837	0.53	-0.156331
C	0.821517	-0.602137	0.672628
C	-0.513798	-0.850282	0.547204
O	-1.09689	0.0414296	-0.29652
H	-0.382258	1.67877	-1.41633
H	2.06081	1.02411	-0.312233
H	1.54592	-1.16034	1.28724
H	-1.15992	-1.62052	0.999432
C	6.53851	0.360671	0.742905
C	6.48805	0.579833	-0.617451
N	5.37899	0.022475	-1.16137
C	4.74383	-0.540317	-0.142316
N	5.40279	-0.364149	1.02744
H	7.27759	0.659247	1.50327
H	7.23203	1.13014	-1.21622
H	3.79257	-1.09381	-0.196789
H	5.10523	-0.713204	1.9713
