18
  This energy is -0.7503 and Call times are: 29216
C	-0.847777	0.676853	-0.330975
C	-0.936406	-0.117769	0.774056
C	0.310687	-0.808807	0.859764
C	1.05131	-0.375465	-0.200459
O	0.359363	0.532151	-0.938335
H	-1.56452	1.38101	-0.784517
H	-1.79395	-0.208222	1.46001
H	0.612306	-1.54157	1.62538
H	2.06977	-0.632822	-0.534747
C	5.1845	-0.839506	0.123601
C	4.98768	0.523038	0.200289
N	6.1483	1.19593	0.00875708
C	7.06166	0.254413	-0.186012
N	6.53029	-0.989645	-0.126345
H	4.48543	-1.68473	0.225795
H	4.02902	1.03263	0.390389
H	8.13416	0.420649	-0.376642
H	7.04537	-1.8959	-0.247418
