18
  This energy is -0.6863 and Call times are: 121959
C	-0.726084	-0.181034	0.852308
C	0.406056	-0.923549	0.687069
C	1.04889	-0.402536	-0.477158
C	0.252832	0.61237	-0.920586
O	-0.835605	0.761596	-0.120556
H	-1.52409	-0.223783	1.61165
H	0.753626	-1.75477	1.32139
H	1.99397	-0.749479	-0.924979
H	0.349265	1.29456	-1.78115
C	6.79143	0.185598	-0.85105
C	7.04155	-0.266646	0.427252
N	5.89548	-0.365056	1.14374
C	4.93801	0.0246559	0.31308
N	5.42736	0.366947	-0.902223
H	7.46512	0.384576	-1.69963
H	8.02844	-0.523692	0.84539
H	3.86175	0.0783899	0.543306
H	4.87323	0.705901	-1.72643
