18
  This energy is -1.2404 and Call times are: 24627
C	-0.291844	-0.907135	-0.615088
C	0.542761	0.060716	-1.09161
C	0.667539	1.02105	-0.0417015
C	-0.101831	0.555268	0.983721
O	-0.695098	-0.621279	0.650883
H	-0.670456	-1.83605	-1.07227
H	1.02242	0.0949539	-2.083
H	1.26318	1.94791	-0.0572083
H	-0.306827	0.962558	1.98739
C	6.05321	-0.103361	-0.210963
C	5.08002	0.287605	-1.10605
N	3.85608	0.296026	-0.52433
C	4.06916	-0.0882548	0.726889
N	5.37794	-0.340832	0.965389
H	7.14219	-0.225334	-0.324076
H	5.23909	0.563758	-2.16118
H	3.30242	-0.201532	1.51016
H	5.7982	-0.657269	1.87341
