18
  This energy is -0.5734 and Call times are: 192427
C	-0.913596	-0.34256	-0.578269
C	0.149688	-1.16282	-0.33959
C	1.08569	-0.382779	0.405755
C	0.511763	0.8453	0.556748
O	-0.709504	0.88767	-0.0379996
H	-1.86263	-0.512593	-1.11276
H	0.263472	-2.21195	-0.656594
H	2.06949	-0.706854	0.781542
H	0.865091	1.76062	1.05933
C	4.98063	0.356353	0.0714733
C	5.91821	0.365811	1.08241
N	7.10859	-0.115825	0.649355
C	6.91024	-0.422909	-0.625393
N	5.643	-0.156627	-1.02137
H	3.92417	0.667968	0.0530173
H	5.75707	0.711533	2.11651
H	7.6587	-0.845697	-1.3148
H	5.24155	-0.311447	-1.97851
