18
  This energy is -1.1721 and Call times are: 90965
C	-0.828278	0.371964	-0.679706
C	0.279281	-0.263965	-1.15854
C	1.07734	-0.573588	-0.0151416
C	0.387009	-0.0995324	1.06147
O	-0.779133	0.481023	0.674068
H	-1.71057	0.789303	-1.19219
H	0.511034	-0.492132	-2.21131
H	2.05088	-1.08955	-0.00513281
H	0.615136	-0.113002	2.13991
C	5.46865	-1.11569	-0.0666064
C	5.89208	-0.156327	0.828647
N	5.2559	1.02184	0.619566
C	4.4409	0.794246	-0.401512
N	4.53215	-0.479891	-0.850777
H	5.75782	-2.17065	-0.19682
H	6.64522	-0.293159	1.62168
H	3.75567	1.52534	-0.859976
H	3.99234	-0.902846	-1.64512
