18
  This energy is -1.415 and Call times are: 138014
C	-1.04057	0.344437	-0.291495
C	-0.329369	-0.546209	-1.0407
C	0.912686	-0.72669	-0.358908
C	0.850838	0.0695998	0.746746
O	-0.33501	0.731051	0.803823
H	-2.04531	0.776894	-0.428373
H	-0.647485	-1.02779	-1.97931
H	1.74905	-1.37602	-0.663791
H	1.5743	0.250937	1.55852
C	5.49056	-0.884567	0.60165
C	5.8148	-0.470775	-0.673023
N	5.048	0.578976	-1.05584
C	4.25109	0.815522	-0.0225895
N	4.47906	-0.0402083	1.00179
H	5.89457	-1.69317	1.23132
H	6.58828	-0.910873	-1.32332
H	3.4826	1.60299	0.0369394
H	3.9803	-0.0572253	1.92494
