18
  This energy is -0.8434 and Call times are: 124769
C	0.928249	0.487162	-0.432929
C	0.195431	1.06626	0.561049
C	-0.877918	0.16372	0.832072
C	-0.706256	-0.887239	-0.0202127
O	0.391966	-0.706404	-0.800097
H	1.83953	0.818512	-0.957362
H	0.391088	2.03211	1.05395
H	-1.67993	0.290659	1.57689
H	-1.28844	-1.81169	-0.167545
C	4.77779	0.930506	-0.496538
C	4.97335	-0.310055	-1.06567
N	5.60933	-1.14581	-0.209185
C	5.80755	-0.426465	0.887115
N	5.32406	0.832342	0.763675
H	4.30434	1.84571	-0.886136
H	4.66696	-0.61704	-2.07895
H	6.30163	-0.77231	1.80935
H	5.35873	1.58932	1.48965
