18
  This energy is -1.0276 and Call times are: 81053
C	-0.327933	0.115544	1.07959
C	0.0587828	-1.08397	0.558066
C	0.392981	-0.827446	-0.806714
C	0.180987	0.506184	-0.99871
O	-0.259457	1.09777	0.142804
H	-0.669356	0.397923	2.08902
H	0.10415	-2.0523	1.08189
H	0.748983	-1.55733	-1.55145
H	0.304568	1.14549	-1.88824
C	5.49106	-0.361141	-0.881537
C	5.12359	-1.08621	0.232189
N	4.31822	-0.359532	1.04448
C	4.18656	0.811897	0.436995
N	4.87477	0.860682	-0.728155
H	6.12632	-0.619541	-1.74364
H	5.42516	-2.12066	0.464171
H	3.59784	1.66908	0.801519
H	4.92863	1.67425	-1.38881
