18
  This energy is -1.234 and Call times are: 74262
C	0.622543	0.702588	0.636562
C	-0.461584	1.12756	-0.0736763
C	-0.97282	-0.0296932	-0.736633
C	-0.155973	-1.05969	-0.372993
O	0.823806	-0.630529	0.465376
H	1.32405	1.243	1.29315
H	-0.861189	2.1531	-0.125531
H	-1.84762	-0.07982	-1.4047
H	-0.165804	-2.12949	-0.638846
C	5.66116	0.697866	0.763661
C	6.21498	-0.308712	0.00127695
N	5.27683	-0.910116	-0.769896
C	4.14532	-0.279034	-0.487003
N	4.32463	0.698978	0.432199
H	6.10863	1.39037	1.49424
H	7.27467	-0.611777	-0.00614986
H	3.15662	-0.492769	-0.924072
H	3.5862	1.33662	0.818734
