18
  This energy is -1.1134 and Call times are: 101986
C	0.851393	-0.327288	-0.674102
C	0.209952	-1.19116	0.16414
C	-0.785334	-0.417669	0.835878
C	-0.664238	0.850593	0.348826
O	0.330453	0.923983	-0.57433
H	1.68254	-0.477518	-1.38254
H	0.416908	-2.26533	0.296187
H	-1.50349	-0.772877	1.5923
H	-1.21793	1.7766	0.575049
C	4.52533	0.769683	0.846898
C	4.93342	-0.536418	1.01633
N	5.16615	-1.13438	-0.17731
C	4.90344	-0.20278	-1.0838
N	4.51321	0.963141	-0.516412
H	4.25181	1.54917	1.57569
H	5.06409	-1.05801	1.97848
H	4.98043	-0.321107	-2.17665
H	4.25131	1.84623	-1.01923
