18
  This energy is -0.7701 and Call times are: 55701
C	-0.386607	-0.0151685	-1.06616
C	0.737126	0.669031	-0.706349
C	0.896039	0.449942	0.6961
C	-0.144614	-0.348801	1.0695
O	-0.937959	-0.642648	0.00588657
H	-0.89092	-0.132533	-2.03938
H	1.38877	1.26793	-1.36269
H	1.69539	0.845199	1.34333
H	-0.427816	-0.771007	2.04765
C	5.05369	0.0209038	-0.817563
C	4.88292	-0.0572931	0.548405
N	6.07622	-0.059287	1.19069
C	6.98383	0.0173814	0.226849
N	6.41747	0.0680742	-1.00208
H	4.32552	0.0455013	-1.64382
H	3.92006	-0.112308	1.082
H	8.07678	0.0397683	0.365349
H	6.92127	0.131271	-1.92047
