18
  This energy is -1.3757 and Call times are: 179587
C	-0.626855	0.13805	0.935091
C	-0.130728	1.19234	0.226081
C	0.593676	0.623229	-0.865461
C	0.476272	-0.728603	-0.727119
O	-0.26588	-1.04272	0.367208
H	-1.24244	0.096248	1.84863
H	-0.261738	2.26337	0.449343
H	1.13599	1.16526	-1.65678
H	0.868623	-1.56227	-1.33235
C	5.00055	-0.534081	1.02938
C	3.83223	0.0790103	0.629016
N	3.95251	0.591702	-0.619659
C	5.19074	0.297789	-0.992518
N	5.86329	-0.380659	-0.0328419
H	5.27008	-1.05144	1.96385
H	2.90466	0.160601	1.21877
H	5.65605	0.555584	-1.95754
H	6.85332	-0.724325	-0.0875345
