18
  This energy is -2.0946 and Call times are: 99643
C	0.494619	-0.991396	0.242667
C	0.281795	-0.0307374	1.18724
C	-0.352678	1.05298	0.506704
C	-0.471562	0.658892	-0.793657
O	0.0407089	-0.587092	-0.972864
H	0.953112	-1.9918	0.307705
H	0.545177	-0.0802834	2.25601
H	-0.679033	2.01073	0.942922
H	-0.895876	1.16637	-1.67552
C	4.22921	-0.343	0.993668
C	3.62492	0.873193	0.755234
N	3.11583	0.928217	-0.499481
C	3.4032	-0.249362	-1.03739
N	4.07404	-1.05136	-0.176944
H	4.7416	-0.741246	1.88384
H	3.54715	1.71195	1.46607
H	3.14583	-0.576607	-2.05764
H	4.41162	-2.02691	-0.365611
