18
  This energy is -0.8151 and Call times are: 189703
C	0.408352	-0.745559	0.75086
C	0.54153	-0.917521	-0.595642
C	-0.0910148	0.212303	-1.19855
C	-0.554892	0.974946	-0.16726
O	-0.25874	0.405021	1.03044
H	0.739795	-1.36155	1.60289
H	1.03563	-1.75588	-1.11247
H	-0.184857	0.424107	-2.27579
H	-1.10357	1.93099	-0.154125
C	6.42929	-0.140072	0.300294
C	5.68544	1.01708	0.394297
N	4.41715	0.819314	-0.0402583
C	4.37435	-0.455674	-0.40247
N	5.56283	-1.07734	-0.216392
H	7.47889	-0.355697	0.555986
H	6.04118	1.99111	0.767889
H	3.4982	-0.985073	-0.810298
H	5.78241	-2.08192	-0.425817
