18
  This energy is -1.9779 and Call times are: 23419
C	0.654564	0.9261	0.016904
C	0.778445	-0.0385543	-0.939375
C	-0.203947	-1.02721	-0.626999
C	-0.841431	-0.579437	0.492592
O	-0.329946	0.612091	0.899599
H	1.1995	1.87087	0.177238
H	1.49022	-0.0525213	-1.78038
H	-0.405301	-1.96013	-1.17765
H	-1.66339	-1.01029	1.08757
C	3.97709	0.688869	0.89793
C	4.81781	1.02478	-0.142015
N	4.97106	-0.0121825	-1.00092
C	4.22823	-0.987694	-0.495744
N	3.6087	-0.614399	0.648991
H	3.62657	1.26577	1.76848
H	5.31656	1.99679	-0.287965
H	4.10245	-1.99531	-0.923666
H	2.96951	-1.2052	1.23521
