18
  This energy is -1.0288 and Call times are: 11847
C	0.95262	-0.0922204	0.608615
C	-0.0889843	0.697855	0.997481
C	-1.08859	0.552005	-0.0122881
C	-0.569589	-0.314322	-0.92907
O	0.676304	-0.717819	-0.565816
H	1.93196	-0.292094	1.07358
H	-0.147531	1.32086	1.90442
H	-2.07626	1.03944	-0.0439257
H	-0.981101	-0.717132	-1.8691
C	4.90842	-0.603698	-0.991937
C	4.62333	-1.01243	0.293676
N	4.97562	-0.0655456	1.19689
C	5.47737	0.926837	0.474361
N	5.45892	0.650623	-0.851141
H	4.76336	-1.1001	-1.9646
H	4.16974	-1.9736	0.585695
H	5.87244	1.87839	0.865119
H	5.79914	1.27333	-1.62428
