18
  This energy is -0.8209 and Call times are: 94376
C	-0.603102	0.725774	-0.629223
C	-0.424654	0.895652	0.712295
C	0.377507	-0.205062	1.14251
C	0.618437	-0.950402	0.0259095
O	0.0270778	-0.396619	-1.06525
H	-1.1498	1.32504	-1.37572
H	-0.818401	1.71398	1.33631
H	0.729364	-0.409837	2.1664
H	1.18787	-1.88267	-0.121986
C	4.4391	-0.0940244	0.168983
C	5.11458	-0.224075	-1.02598
N	6.44812	-0.0544622	-0.85443
C	6.59934	0.17992	0.442034
N	5.41731	0.166468	1.10249
H	3.36727	-0.166011	0.412985
H	4.66362	-0.437251	-2.00886
H	7.55346	0.367903	0.960252
H	5.27343	0.324386	2.12992
