18
  This energy is -0.8105 and Call times are: 132538
C	-0.257413	-0.464287	1.00229
C	-1.03002	-0.646147	-0.106937
C	-0.388871	0.0837568	-1.15397
C	0.718938	0.647216	-0.592149
O	0.814899	0.322992	0.724165
H	-0.361367	-0.836489	2.03472
H	-1.95831	-1.2352	-0.180461
H	-0.72121	0.173149	-2.20071
H	1.50708	1.2906	-1.01657
C	6.36835	-0.27241	-0.84884
C	6.62886	0.429449	0.309034
N	5.51032	0.561191	1.06271
C	4.55951	-0.0565893	0.375005
N	5.02671	-0.575944	-0.784987
H	7.02097	-0.567513	-1.68582
H	7.60387	0.843135	0.614118
H	3.50404	-0.158275	0.674804
H	4.47252	-1.10839	-1.49957
