18
  This energy is -1.1018 and Call times are: 173154
C	0.87331	-0.641515	0.334946
C	-0.218076	-1.16437	-0.294238
C	-1.08641	-0.0602498	-0.553143
C	-0.448999	1.03985	-0.0593174
O	0.749193	0.703323	0.486668
H	1.79193	-1.1144	0.719371
H	-0.394009	-2.22151	-0.550342
H	-2.06946	-0.0911234	-1.0499
H	-0.738587	2.10324	-0.0351333
C	5.94144	-1.01795	-0.236048
C	6.53161	0.155289	0.183893
N	5.60782	1.1309	0.360815
C	4.44896	0.565063	0.0518049
N	4.59711	-0.730136	-0.314395
H	6.36871	-2.0044	-0.476658
H	7.60743	0.31529	0.36239
H	3.46157	1.0536	0.0764796
H	3.83341	-1.38947	-0.603012
