18
  This energy is -2.4487 and Call times are: 86441
C	0.0350552	0.831189	-0.770906
C	0.585599	-0.396456	-0.994879
C	0.341526	-1.15642	0.189606
C	-0.336621	-0.326085	1.03284
O	-0.532466	0.891845	0.462484
H	-0.0186732	1.73429	-1.4008
H	1.11088	-0.733094	-1.90309
H	0.639948	-2.19943	0.382368
H	-0.729954	-0.480391	2.05104
C	4.35143	-1.03106	-0.447771
C	5.64113	-0.659898	-0.131476
N	5.67913	0.600771	0.36429
C	4.41779	1.01013	0.355587
N	3.57882	0.0621858	-0.125165
H	3.9424	-1.96466	-0.865658
H	6.54491	-1.27916	-0.252111
H	4.05302	1.99462	0.690192
H	2.53809	0.144368	-0.231828
