18
  This energy is -1.827 and Call times are: 117083
C	-0.117601	-1.12707	0.0477869
C	0.744054	-0.447589	0.857867
C	0.609409	0.929687	0.504174
C	-0.32264	0.970258	-0.490819
O	-0.77732	-0.276878	-0.782247
H	-0.350249	-2.20148	-0.0345377
H	1.40788	-0.873513	1.6273
H	1.14808	1.78393	0.944851
H	-0.742634	1.8122	-1.06527
C	4.47177	-0.577336	1.01751
C	5.228	-0.969354	-0.0667339
N	5.14801	-0.0634374	-1.07144
C	4.34522	0.886971	-0.612227
N	3.9111	0.623322	0.643009
H	4.2987	-1.05197	1.99644
H	5.82989	-1.88963	-0.142061
H	4.04219	1.79765	-1.15358
H	3.26963	1.21988	1.22085
