18
  This energy is -1.0877 and Call times are: 186554
C	-0.892351	-0.695162	0.082829
C	-0.0045712	-0.766129	-0.950218
C	0.962744	0.255863	-0.70537
C	0.580685	0.861137	0.455685
O	-0.550297	0.293056	0.950836
H	-1.79633	-1.28314	0.311651
H	-0.0284822	-1.46777	-1.79947
H	1.83795	0.504157	-1.32703
H	1.02263	1.69516	1.02519
C	5.61745	1.09585	0.421189
C	6.72201	0.271951	0.469071
N	6.46455	-0.924744	-0.112434
C	5.20506	-0.843554	-0.519518
N	4.65047	0.355192	-0.221132
H	5.45646	2.12255	0.786557
H	7.70009	0.519557	0.912786
H	4.63984	-1.6326	-1.04122
H	3.67057	0.661955	-0.437807
