18
  This energy is -1.9353 and Call times are: 3381
C	-0.00866849	1.10188	0.268674
C	-0.166816	0.120949	1.20309
C	-0.0987142	-1.11409	0.488832
C	0.0950374	-0.778842	-0.819008
O	0.152499	0.570378	-0.971706
H	0.00797259	2.20054	0.357662
H	-0.316422	0.253749	2.28664
H	-0.185021	-2.12924	0.90848
H	0.206435	-1.39861	-1.72384
C	4.42763	0.757167	-0.646434
C	3.89153	-0.44217	-1.06517
N	3.22756	-1.05893	-0.0575661
C	3.35127	-0.245301	0.982306
N	4.06643	0.863572	0.678107
H	5.02081	1.51712	-1.17949
H	3.97195	-0.87351	-2.07627
H	2.93784	-0.41295	1.98988
H	4.30107	1.6538	1.32752
