18
  This energy is -0.8589 and Call times are: 54556
C	1.10669	0.246157	0.0322173
C	0.1434	1.21178	0.0300603
C	-1.10475	0.518832	-0.0153873
C	-0.793995	-0.809076	-0.0369902
O	0.55212	-0.993927	-0.00842678
H	2.20681	0.310991	0.0602976
H	0.296416	2.30262	0.0576993
H	-2.11187	0.965572	-0.0299917
H	-1.43055	-1.70842	-0.0721459
C	6.42213	-0.808011	0.709823
C	6.49667	0.550371	0.934291
N	7.11347	1.18236	-0.0936496
C	7.42039	0.219713	-0.952558
N	7.02446	-0.998584	-0.513724
H	5.99725	-1.62529	1.31404
H	6.11646	1.08574	1.81954
H	7.93509	0.351577	-1.91792
H	7.15201	-1.91394	-1.01084
