18
  This energy is -0.7404 and Call times are: 171493
C	-0.161245	-0.421303	1.04063
C	0.998894	0.195068	0.673831
C	0.821773	0.582338	-0.689536
C	-0.430965	0.168435	-1.03552
O	-1.04564	-0.446479	0.00901937
H	-0.476986	-0.87816	1.99291
H	1.89	0.36043	1.30047
H	1.54825	1.10766	-1.33013
H	-0.993152	0.250426	-1.98023
C	4.95194	-0.258142	-0.0201998
C	5.59438	0.714871	-0.75617
N	6.92169	0.737041	-0.483645
C	7.10199	-0.218584	0.417964
N	5.94441	-0.847868	0.730401
H	3.89401	-0.562492	0.0211413
H	5.12396	1.40129	-1.47893
H	8.06087	-0.499445	0.882597
H	5.8256	-1.63503	1.41415
