18
  This energy is -0.8425 and Call times are: 105531
C	-0.702076	0.848678	-0.270621
C	-0.756092	-0.367995	-0.884756
C	0.26985	-1.1569	-0.280447
C	0.860236	-0.352674	0.649627
O	0.279258	0.875778	0.669199
H	-1.29859	1.76517	-0.410108
H	-1.4489	-0.678753	-1.68322
H	0.53065	-2.20094	-0.517211
H	1.69122	-0.533862	1.35098
C	5.84006	0.310025	-1.04658
C	4.56281	-0.139403	-0.786228
N	4.39782	-0.405822	0.532222
C	5.56827	-0.12275	1.08769
N	6.47113	0.312735	0.177321
H	6.32829	0.617847	-1.98488
H	3.75737	-0.276198	-1.5261
H	5.81849	-0.216348	2.15674
H	7.46292	0.598076	0.367572
