18
  This energy is -2.0508 and Call times are: 203410
C	-0.0442052	0.806332	-0.796414
C	-0.326723	-0.500928	-1.06405
C	-0.163874	-1.19721	0.172386
C	0.203782	-0.253976	1.08645
O	0.281759	0.975275	0.512103
H	-0.0392161	1.70016	-1.44163
H	-0.620342	-0.931691	-2.03479
H	-0.306126	-2.27517	0.350914
H	0.43536	-0.328959	2.16162
C	3.34226	-1.07554	0.402335
C	3.72385	-0.741097	-0.879726
N	3.94268	0.591537	-0.992458
C	3.69779	1.08196	0.215075
N	3.3322	0.116604	1.09145
H	3.08571	-2.04518	0.857879
H	3.84518	-1.43749	-1.7254
H	3.77084	2.14051	0.512334
H	3.08768	0.250729	2.10312
