18
  This energy is -1.5051 and Call times are: 90997
C	-0.281719	-1.08775	-0.154417
C	0.755622	-0.500668	-0.817469
C	0.794513	0.852735	-0.362601
C	-0.222494	0.973228	0.53826
O	-0.890273	-0.202199	0.677738
H	-0.682515	-2.11419	-0.186354
H	1.42616	-0.97326	-1.55309
H	1.5012	1.63812	-0.675423
H	-0.569176	1.82991	1.13923
C	5.05697	-0.0394293	1.16572
C	5.74665	-0.759119	0.213078
N	5.30592	-0.466202	-1.03451
C	4.34647	0.43179	-0.856511
N	4.15846	0.722379	0.452612
H	5.13922	-0.0162513	2.26401
H	6.55437	-1.48448	0.403604
H	3.74948	0.909177	-1.6502
H	3.4611	1.39908	0.848882
