18
  This energy is -1.4142 and Call times are: 22183
C	0.750825	0.631329	0.569286
C	-0.586845	0.897453	0.583164
C	-1.19282	-0.101686	-0.2382
C	-0.171953	-0.890168	-0.681493
O	1.02209	-0.457025	-0.19812
H	1.60148	1.13457	1.05754
H	-1.09579	1.7153	1.11813
H	-2.26501	-0.21253	-0.466684
H	-0.16445	-1.77713	-1.33609
C	4.147	0.894965	-0.615568
C	4.08419	-0.44483	-0.935171
N	4.71338	-1.19978	-0.00206651
C	5.16481	-0.331629	0.893005
N	4.84894	0.944395	0.568086
H	3.75495	1.78698	-1.12953
H	3.59614	-0.880273	-1.82233
H	5.7327	-0.576413	1.80505
H	5.09236	1.80703	1.11386
