18
  This energy is -0.6915 and Call times are: 76699
C	-0.755663	-0.433239	-0.726415
C	0.324916	0.288684	-1.1406
C	1.02832	0.655917	0.0470292
C	0.315493	0.125987	1.08212
O	-0.777192	-0.542503	0.628062
H	-1.57129	-0.916467	-1.28899
H	0.599154	0.537631	-2.17835
H	1.95637	1.24621	0.113182
H	0.478587	0.153728	2.17202
C	5.65503	-0.838919	0.812584
C	4.9167	0.317564	0.67633
N	5.35754	1.05838	-0.36931
C	6.36552	0.364117	-0.879802
N	6.5843	-0.787724	-0.202316
H	5.58719	-1.66709	1.53582
H	4.07382	0.630691	1.31378
H	6.97761	0.653136	-1.74931
H	7.32139	-1.5051	-0.410502
