18
  This energy is -1.3801 and Call times are: 64865
C	0.650237	-0.364307	0.854911
C	1.1068	0.506695	-0.0902226
C	0.0135074	0.722588	-0.983653
C	-1.01464	-0.0355427	-0.505611
O	-0.643415	-0.706001	0.616748
H	1.14073	-0.810885	1.73538
H	2.11258	0.952439	-0.152049
H	0.00307497	1.369	-1.87592
H	-2.04535	-0.181727	-0.868259
C	4.98976	-0.193107	-1.14534
C	5.13908	1.00057	-0.471555
N	4.8345	0.861838	0.841645
C	4.49751	-0.413057	0.982004
N	4.57504	-1.09125	-0.187454
H	5.14411	-0.458152	-2.20338
H	5.46113	1.95942	-0.909446
H	4.18592	-0.902265	1.91893
H	4.36017	-2.10761	-0.336147
