18
  This energy is -0.595 and Call times are: 58552
C	1.04184	0.133335	-0.428017
C	-0.0271387	-0.211388	-1.20186
C	-1.14507	-0.281273	-0.315591
C	-0.660553	0.0269131	0.9216
O	0.67322	0.282945	0.871502
H	2.1022	0.300735	-0.678737
H	-0.0283103	-0.397763	-2.28784
H	-2.18534	-0.532607	-0.577793
H	-1.15568	0.0970746	1.90404
C	5.09407	-0.337929	0.218643
C	5.61144	0.0663054	-0.99382
N	6.92389	0.385261	-0.883111
C	7.2196	0.17968	0.393178
N	6.1497	-0.256859	1.09912
H	4.08311	-0.666586	0.50758
H	5.06123	0.133527	-1.9465
H	8.20412	0.33302	0.863751
H	6.12841	-0.489279	2.12225
