18
  This energy is -0.9869 and Call times are: 27258
C	-1.1203	-0.140595	0.107507
C	-0.318842	-1.07884	-0.473647
C	1.00579	-0.546923	-0.423264
C	0.896858	0.669407	0.184231
O	-0.394527	0.933705	0.515113
H	-2.20747	-0.118676	0.288702
H	-0.629299	-2.04825	-0.895494
H	1.92657	-1.02192	-0.798281
H	1.65278	1.43143	0.435528
C	6.04944	0.777833	-0.467344
C	5.39931	-0.243884	-1.12656
N	4.6098	-0.947614	-0.279239
C	4.76954	-0.364689	0.901145
N	5.62795	0.680766	0.839987
H	6.75855	1.54165	-0.824122
H	5.48577	-0.485872	-2.19839
H	4.28185	-0.662956	1.84318
H	5.91729	1.2995	1.63667
