18
  This energy is -0.7544 and Call times are: 93328
C	0.945847	0.594258	0.196549
C	-0.291749	1.05888	0.53249
C	-1.21265	0.0430348	0.132343
C	-0.45651	-0.952678	-0.412799
O	0.864006	-0.632851	-0.381826
H	1.94923	1.03531	0.31464
H	-0.532058	2.02049	1.01379
H	-2.30893	0.0604254	0.241711
H	-0.73447	-1.92507	-0.851474
C	6.65123	0.7629	-0.280156
C	6.6874	-0.187366	0.718257
N	5.53238	-0.89487	0.761517
C	4.78251	-0.385457	-0.206379
N	5.41254	0.616842	-0.863686
H	7.3945	1.50789	-0.605842
H	7.52622	-0.375149	1.40817
H	3.76445	-0.709058	-0.476692
H	5.03025	1.17613	-1.66513
