18
  This energy is -0.6666 and Call times are: 186266
C	-0.0864982	0.210884	1.11106
C	0.306229	1.16175	0.215516
C	0.292042	0.524583	-1.06274
C	-0.108102	-0.759399	-0.83548
O	-0.343599	-0.968495	0.486576
H	-0.220872	0.247586	2.20461
H	0.578591	2.20699	0.433223
H	0.551218	0.977577	-2.03316
H	-0.262215	-1.60925	-1.5205
C	4.89625	-0.420645	-0.976926
C	4.60497	-0.77589	0.323113
N	5.37849	-0.0926279	1.20137
C	6.14672	0.683542	0.449031
N	5.89406	0.522455	-0.871501
H	4.47804	-0.760876	-1.93759
H	3.85053	-1.51296	0.643108
H	6.91091	1.38878	0.813574
H	6.36798	1.021	-1.66403
