18
  This energy is -0.9017 and Call times are: 199470
C	-0.220816	0.98854	-0.510322
C	-0.20905	-0.195949	-1.1865
C	0.103506	-1.19678	-0.21657
C	0.255146	-0.535528	0.966701
O	0.0606158	0.799869	0.805812
H	-0.412814	2.0206	-0.846825
H	-0.401194	-0.349503	-2.26056
H	0.20188	-2.28059	-0.389079
H	0.498038	-0.896016	1.97977
C	5.11821	-0.688054	-0.954643
C	4.01205	-0.330806	-0.213081
N	4.35643	0.473937	0.82147
C	5.67125	0.615392	0.722094
N	6.17771	-0.0659897	-0.332802
H	5.22293	-1.31986	-1.85097
H	2.97163	-0.639302	-0.406001
H	6.31274	1.20672	1.39519
H	7.18547	-0.111701	-0.621906
