18
  This energy is -1.0879 and Call times are: 85271
C	-0.593947	0.283295	-0.923782
C	-1.15845	0.218859	0.316202
C	-0.107893	-0.164765	1.20462
C	1.00585	-0.300891	0.429104
O	0.727285	-0.0310674	-0.873435
H	-1.0195	0.53714	-1.90852
H	-2.20924	0.421177	0.578902
H	-0.182194	-0.319023	2.29309
H	2.04204	-0.58082	0.680504
C	4.41391	0.689794	-0.352316
C	5.00233	-0.331555	-1.06768
N	5.9959	-0.917196	-0.356088
C	6.02375	-0.261655	0.79635
N	5.08909	0.716808	0.847512
H	3.58997	1.3764	-0.603758
H	4.72777	-0.656371	-2.08452
H	6.70836	-0.457091	1.63739
H	4.91243	1.37131	1.64856
