18
  This energy is -0.985 and Call times are: 54620
C	0.415349	-0.428208	-0.964637
C	-0.9181	-0.212227	-0.775848
C	-1.04441	0.325887	0.541192
C	0.222999	0.391237	1.04096
O	1.12711	-0.0652772	0.134768
H	0.976387	-0.829978	-1.82433
H	-1.7312	-0.411823	-1.49218
H	-1.97492	0.626464	1.04904
H	0.608287	0.7382	2.01381
C	4.45403	-0.319904	-0.622817
C	4.89411	-0.877601	0.5589
N	6.01754	-0.2621	1.00114
C	6.27344	0.673878	0.0972084
N	5.3594	0.679423	-0.901836
H	3.5895	-0.555585	-1.26358
H	4.42113	-1.71306	1.10032
H	7.11703	1.3825	0.118156
H	5.34344	1.32247	-1.73099
