18
  This energy is -1.0406 and Call times are: 107000
C	-0.0142691	0.141755	1.12521
C	0.452313	-0.997698	0.538423
C	0.308537	-0.799906	-0.868817
C	-0.233213	0.442954	-1.01774
O	-0.436971	1.0324	0.189752
H	-0.0976848	0.437554	2.18389
H	0.857123	-1.88817	1.04566
H	0.579706	-1.50653	-1.6696
H	-0.516681	1.01396	-1.9171
C	4.54223	1.1369	0.260113
C	4.73514	0.103054	1.15179
N	4.88265	-1.07876	0.505211
C	4.78164	-0.779216	-0.782693
N	4.57598	0.544197	-0.982365
H	4.38846	2.21644	0.416585
H	4.77053	0.188712	2.25009
H	4.85072	-1.49051	-1.62145
H	4.46363	1.02682	-1.90741
