18
  This energy is -1.0588 and Call times are: 80893
C	1.07162	0.174511	-0.327993
C	0.233164	-0.671956	-0.991966
C	-1.00862	-0.624278	-0.287829
C	-0.819385	0.247116	0.744273
O	0.445361	0.744453	0.735011
H	2.12249	0.453865	-0.509303
H	0.465801	-1.26994	-1.88773
H	-1.93022	-1.17794	-0.529102
H	-1.49633	0.592809	1.5427
C	5.25714	1.14765	0.0432059
C	5.55627	0.270482	-0.977694
N	5.11126	-0.97801	-0.695298
C	4.53824	-0.875758	0.496262
N	4.60021	0.386039	0.983723
H	5.45854	2.22405	0.162988
H	6.08521	0.516097	-1.91297
H	4.05802	-1.69352	1.05741
H	4.22021	0.720452	1.90298
