18
  This energy is -0.7442 and Call times are: 10358
C	-0.147504	-1.06221	0.369262
C	-1.02323	-0.0585917	0.662918
C	-0.503412	1.11156	0.0299478
C	0.644075	0.719709	-0.594631
O	0.876779	-0.604741	-0.397927
H	-0.141066	-2.13016	0.64257
H	-1.94298	-0.134659	1.26488
H	-0.940003	2.12314	0.0435677
H	1.37379	1.27991	-1.20204
C	5.52306	-0.682605	0.94225
C	4.56532	-0.215602	0.0671498
N	5.12226	0.545227	-0.906235
C	6.42056	0.550204	-0.636023
N	6.71278	-0.175921	0.468939
H	5.44479	-1.31844	1.83843
H	3.48245	-0.414012	0.120683
H	7.20154	1.06938	-1.2146
H	7.66434	-0.324599	0.885686
