18
  This energy is -2.3282 and Call times are: 99611
C	0.259113	-0.476296	0.996195
C	0.540113	0.828518	0.715349
C	0.0695755	1.05232	-0.614547
C	-0.457427	-0.135486	-1.02898
O	-0.350157	-1.0802	-0.0578925
H	0.43947	-1.08547	1.8971
H	1.02964	1.56002	1.37819
H	0.121736	1.99185	-1.18783
H	-0.931776	-0.433258	-1.9785
C	4.00976	-0.771389	-0.560013
C	5.36747	-0.879588	-0.345392
N	5.84155	0.19225	0.334986
C	4.78199	0.962459	0.541666
N	3.65338	0.42511	0.0209966
H	3.29577	-1.4389	-1.06813
H	6.01346	-1.71184	-0.669285
H	4.7764	1.93022	1.06858
H	2.69035	0.840759	0.053679
