18
  This energy is -0.702 and Call times are: 120894
C	-0.0512231	-0.422039	1.0515
C	-1.16157	-0.251892	0.27784
C	-0.697252	0.293509	-0.957904
C	0.655843	0.408502	-0.830299
O	1.06756	-0.0239014	0.390574
H	0.0739138	-0.811509	2.07518
H	-2.2031	-0.486878	0.550046
H	-1.3072	0.56547	-1.83431
H	1.42703	0.777904	-1.52604
C	6.43913	0.0238418	0.552031
C	5.67802	-1.09041	0.268668
N	4.53655	-0.750888	-0.378071
C	4.58931	0.568981	-0.49548
N	5.71704	1.08332	0.0497457
H	7.41108	0.134139	1.05867
H	5.93207	-2.13324	0.519294
H	3.82904	1.20873	-0.971858
H	5.98944	2.0962	0.0834279
