18
  This energy is -1.0109 and Call times are: 188462
C	-0.726546	-0.0971348	0.865503
C	0.45706	-0.773808	0.825957
C	1.08244	-0.396301	-0.40144
C	0.225791	0.477737	-1.00359
O	-0.884166	0.672017	-0.243809
H	-1.5328	-0.0776532	1.61705
H	0.850303	-1.46905	1.58497
H	2.05697	-0.74065	-0.783286
H	0.289695	1.02248	-1.95984
C	6.13319	-0.480069	-0.983346
C	6.7614	0.431225	-0.161124
N	5.97027	0.77196	0.885072
C	4.85551	0.0747013	0.712538
N	4.90456	-0.695553	-0.400068
H	6.46253	-0.974005	-1.9113
H	7.77131	0.848961	-0.304042
H	3.97203	0.090593	1.3709
H	4.15035	-1.33506	-0.75143
