18
  This energy is -1.0724 and Call times are: 166249
C	0.0537104	0.786493	0.815441
C	-0.977459	-0.101594	0.723976
C	-0.69151	-0.916978	-0.413345
C	0.489156	-0.455181	-0.916481
O	0.958521	0.584986	-0.178402
H	0.257165	1.59934	1.53178
H	-1.85175	-0.175123	1.39053
H	-1.30002	-1.7484	-0.80392
H	1.09048	-0.776866	-1.78261
C	5.54525	0.907532	-0.51399
C	6.04027	0.108223	0.494573
N	5.1431	-0.843816	0.848421
C	4.09547	-0.635917	0.0623657
N	4.28889	0.408937	-0.776956
H	5.98349	1.76719	-1.04546
H	7.02872	0.201419	0.973261
H	3.16063	-1.21927	0.0596797
H	3.61095	0.770361	-1.49182
