18
  This energy is -0.8691 and Call times are: 181171
C	-0.97118	-0.448897	-0.376434
C	-0.0633928	0.133049	-1.21168
C	1.00994	0.572013	-0.377778
C	0.663296	0.219561	0.893438
O	-0.543619	-0.404931	0.912857
H	-1.94611	-0.924275	-0.57336
H	-0.141739	0.242251	-2.30531
H	1.92924	1.08923	-0.696306
H	1.1818	0.354957	1.8568
C	6.39962	0.347742	-0.79043
C	5.0638	0.688035	-0.759983
N	4.43555	0.107647	0.291191
C	5.37804	-0.59005	0.910509
N	6.57992	-0.477643	0.296961
H	7.20773	0.625267	-1.48575
H	4.54207	1.34194	-1.47766
H	5.24248	-1.20099	1.81748
H	7.47801	-0.932569	0.59317
