18
  This energy is -0.8465 and Call times are: 159481
C	0.148717	0.289203	-1.08658
C	1.18226	-0.100539	-0.286414
C	0.605153	-0.378125	0.990303
C	-0.730112	-0.133507	0.857621
O	-1.02655	0.274906	-0.404257
H	0.119267	0.597726	-2.1445
H	2.24449	-0.184167	-0.567078
H	1.13096	-0.719766	1.89634
H	-1.56256	-0.211218	1.57613
C	4.96799	0.406896	0.592358
C	5.22302	0.557961	-0.754224
N	6.38941	-0.0387575	-1.10059
C	6.8562	-0.558036	0.0268294
N	6.03517	-0.316453	1.07618
H	4.13054	0.751456	1.21965
H	4.5863	1.08683	-1.48206
H	7.79434	-1.12484	0.140322
H	6.18332	-0.621967	2.06914
