18
  This energy is -2.1096 and Call times are: 93712
C	0.401721	-1.00842	-0.328805
C	-0.397706	-0.244862	-1.12772
C	-0.692455	0.932647	-0.37492
C	-0.0471237	0.784702	0.817571
O	0.626101	-0.395008	0.862997
H	0.869616	-1.99344	-0.490243
H	-0.745003	-0.486573	-2.1451
H	-1.31372	1.78542	-0.692571
H	0.0106585	1.43807	1.70359
C	3.88985	-0.91323	0.717677
C	3.61161	0.385696	1.08716
N	3.44946	1.17879	0.000316558
C	3.62645	0.37494	-1.03945
N	3.89448	-0.896746	-0.659238
H	4.0786	-1.81797	1.31714
H	3.52494	0.764806	2.11847
H	3.57095	0.665592	-2.1009
H	4.072	-1.71438	-1.29266
