18
  This energy is -1.2553 and Call times are: 167450
C	-0.00589792	-0.563539	0.984271
C	0.270333	0.769957	0.90773
C	0.181556	1.10879	-0.476982
C	-0.141088	-0.0475624	-1.12438
O	-0.259529	-1.079	-0.247387
H	-0.0530865	-1.25223	1.84376
H	0.512333	1.44708	1.74262
H	0.34104	2.10085	-0.929172
H	-0.311801	-0.264804	-2.19158
C	4.0981	0.495398	-0.571186
C	4.12595	0.104414	0.750744
N	5.32766	-0.430397	1.0769
C	6.0426	-0.371419	-0.0384478
N	5.3456	0.178748	-1.06075
H	3.30527	0.961027	-1.17794
H	3.30047	0.198636	1.47501
H	7.08161	-0.71702	-0.161951
H	5.68991	0.334429	-2.03976
