18
  This energy is -0.6327 and Call times are: 97381
C	-0.970555	0.575893	-0.113007
C	-0.941419	-0.757378	0.173197
C	0.440309	-1.11401	0.234527
C	1.13355	0.0328142	-0.0196137
O	0.287797	1.07477	-0.234163
H	-1.81101	1.27519	-0.253976
H	-1.80618	-1.42296	0.325816
H	0.859855	-2.11107	0.44415
H	2.21564	0.2359	-0.0752493
C	6.62431	1.01231	0.424609
C	5.29743	0.659047	0.299167
N	5.17014	-0.582406	-0.229136
C	6.41332	-0.99773	-0.430673
N	7.32634	-0.071998	-0.0525011
H	7.10271	1.92802	0.806879
H	4.42966	1.27771	0.580396
H	6.71172	-1.97099	-0.852524
H	8.37013	-0.162923	-0.111502
