18
  This energy is -1.0402 and Call times are: 41380
C	0.739395	-0.550872	0.660481
C	-0.122789	-1.2022	-0.171859
C	-0.879743	-0.182855	-0.826138
C	-0.413301	1.00139	-0.335862
O	0.575774	0.795462	0.573169
H	1.50772	-0.926092	1.35628
H	-0.216349	-2.29121	-0.311121
H	-1.67689	-0.324398	-1.57355
H	-0.698203	2.04448	-0.550427
C	5.88088	0.631996	0.457956
C	5.79219	-0.74271	0.399122
N	4.63899	-1.13292	-0.196168
C	4.01464	-0.00458163	-0.505458
N	4.72278	1.08738	-0.131637
H	6.66017	1.29629	0.864116
H	6.53964	-1.45998	0.775541
H	3.03669	0.0793652	-1.00625
H	4.44293	2.0899	-0.265446
