18
  This energy is -1.9646 and Call times are: 161636
C	0.388472	0.606795	0.875951
C	-0.165297	1.18791	-0.22678
C	-0.527517	0.11308	-1.09491
C	-0.16312	-1.02997	-0.446044
O	0.397897	-0.747185	0.759072
H	0.807507	1.04089	1.79857
H	-0.304722	2.26537	-0.41045
H	-1.00362	0.191491	-2.0855
H	-0.248079	-2.0914	-0.731342
C	3.6275	0.0422408	1.14414
C	4.01977	-1.0684	0.42738
N	4.25486	-0.754785	-0.869883
C	4.00937	0.545471	-0.957576
N	3.62783	1.07217	0.230115
H	3.35717	0.168377	2.20459
H	4.13737	-2.09039	0.823047
H	4.09329	1.16152	-1.86734
H	3.37956	2.07418	0.418744
