18
  This energy is -0.5181 and Call times are: 64417
C	-0.880188	0.473879	0.535826
C	-0.968599	0.00714132	-0.742733
C	0.3249	-0.508207	-1.06116
C	1.08956	-0.310897	0.0509273
O	0.369689	0.287771	1.03601
H	-1.62488	0.953214	1.19227
H	-1.8557	0.0240617	-1.39608
H	0.640101	-0.970298	-2.01048
H	2.14465	-0.548618	0.264319
C	6.68054	-0.989075	0.511871
C	5.38527	-0.517218	0.483987
N	5.30621	0.653497	-0.194015
C	6.5477	0.906955	-0.585257
N	7.41342	-0.0539626	-0.184295
H	7.11804	-1.89394	0.962808
H	4.50638	-1.00054	0.940937
H	6.87839	1.78196	-1.16771
H	8.44615	-0.0814138	-0.368621
