18
  This energy is -1.1974 and Call times are: 130707
C	-0.896698	0.609765	0.332446
C	0.172232	1.1697	-0.303347
C	1.08202	0.0980657	-0.55634
C	0.488728	-1.02213	-0.0528147
O	-0.720339	-0.728105	0.493735
H	-1.83203	1.04964	0.715725
H	0.306584	2.23092	-0.567665
H	2.062	0.163204	-1.05581
H	0.819265	-2.07333	-0.0215508
C	5.60538	0.977892	-0.249669
C	5.66398	-0.225476	-0.920202
N	4.83158	-1.13726	-0.361383
C	4.25877	-0.501953	0.651972
N	4.69219	0.77626	0.761084
H	6.13135	1.93165	-0.414728
H	6.29196	-0.452131	-1.79719
H	3.51504	-0.92555	1.346
H	4.39015	1.47967	1.47888
