18
  This energy is -1.2407 and Call times are: 71011
C	0.357903	-0.771753	-0.750136
C	-0.395221	0.305763	-1.11364
C	-0.643424	1.03333	0.0901715
C	-0.0200622	0.336186	1.08304
O	0.596515	-0.769065	0.587799
H	0.780996	-1.60077	-1.34087
H	-0.741265	0.56249	-2.12776
H	-1.22017	1.96632	0.194986
H	0.0576811	0.519496	2.16729
C	3.75177	0.0402154	-0.907542
C	4.65232	1.0151	-0.533709
N	5.3567	0.636037	0.560214
C	4.89489	-0.569428	0.863868
N	3.92587	-0.973074	0.0084954
H	3.02363	-0.00274845	-1.73307
H	4.80643	1.9852	-1.03372
H	5.2311	-1.20065	1.70217
H	3.4062	-1.88431	0.0375746
