18
  This energy is -1.1256 and Call times are: 168987
C	0.152255	0.931759	0.628525
C	1.16679	0.350726	-0.0739583
C	0.591301	-0.781087	-0.728117
C	-0.724112	-0.791775	-0.367634
O	-1.00971	0.247165	0.460647
H	0.128748	1.82292	1.27701
H	2.21525	0.685554	-0.126243
H	1.10484	-1.49827	-1.38844
H	-1.54836	-1.47542	-0.629351
C	5.16283	-1.07587	-0.456918
C	6.03285	-0.0977286	-0.889868
N	5.92693	1.02071	-0.131991
C	4.99475	0.737499	0.767703
N	4.50316	-0.514782	0.613689
H	4.97278	-2.09745	-0.822712
H	6.73509	-0.178985	-1.73551
H	4.634	1.41074	1.56196
H	3.76091	-0.971305	1.19843
