18
  This energy is -1.4654 and Call times are: 104545
C	0.158712	0.919747	-0.64442
C	-0.908834	0.0871252	-0.810135
C	-0.760674	-0.938898	0.172434
C	0.38433	-0.64269	0.851845
O	0.958831	0.48919	0.366244
H	0.458156	1.83892	-1.17424
H	-1.71933	0.185585	-1.55006
H	-1.43346	-1.79412	0.345795
H	0.889925	-1.15113	1.68917
C	3.85559	-0.94331	0.659943
C	3.6839	-0.819619	-0.702543
N	4.06932	0.405739	-1.13435
C	4.47856	1.03982	-0.0438973
N	4.3695	0.268695	1.06383
H	3.65513	-1.78013	1.34775
H	3.28883	-1.59259	-1.38173
H	4.86752	2.06987	1.48002e-05
H	4.62731	0.54202	2.04367
