18
  This energy is -0.7583 and Call times are: 193078
C	0.330603	1.0804	-0.0991923
C	-0.486821	0.480008	-1.01118
C	-0.673235	-0.858173	-0.547889
C	0.0467298	-0.957394	0.606312
O	0.666243	0.217188	0.895404
H	0.739981	2.10255	-0.0456121
H	-0.915513	0.933932	-1.91907
H	-1.2752	-1.64808	-1.02516
H	0.196732	-1.79719	1.30452
C	4.95826	-0.628157	-0.891842
C	4.2884	-0.213105	0.239598
N	5.10489	0.491939	1.05982
C	6.27682	0.514192	0.439589
N	6.23985	-0.147466	-0.741272
H	4.62479	-1.21209	-1.7644
H	3.23058	-0.409744	0.478779
H	7.19527	1.00077	0.805562
H	7.0358	-0.270792	-1.41396
