18
  This energy is -1.1447 and Call times are: 78018
C	-0.000846549	0.57926	0.97512
C	0.886457	0.838636	-0.0277712
C	0.575332	-0.0834499	-1.07327
C	-0.474631	-0.8249	-0.616982
O	-0.839535	-0.433718	0.632352
H	-0.136835	1.03868	1.96794
H	1.68042	1.60265	-0.0309907
H	1.0801	-0.176512	-2.04828
H	-1.04352	-1.64847	-1.07888
C	6.20821	0.226003	0.325407
C	5.17589	-0.191732	1.1384
N	4.03209	-0.355901	0.430386
C	4.35361	-0.0412088	-0.8171
N	5.65456	0.316384	-0.932167
H	7.26247	0.457631	0.545428
H	5.2359	-0.377609	2.22316
H	3.67498	-0.0554479	-1.68514
H	6.14754	0.607095	-1.81178
