18
  This energy is -0.9158 and Call times are: 117820
C	-0.271488	-0.762666	-0.794378
C	-0.864218	0.46389	-0.726513
C	-0.266199	1.12596	0.388906
C	0.63918	0.245535	0.904191
O	0.649221	-0.91308	0.193894
H	-0.414987	-1.60658	-1.48898
H	-1.64431	0.86245	-1.39487
H	-0.490435	2.1399	0.757319
H	1.32777	0.322821	1.76159
C	5.94545	-0.344908	0.610122
C	5.57727	-0.762169	-0.651415
N	4.43056	-0.159922	-1.04999
C	4.08865	0.62796	-0.0395607
N	4.97029	0.551983	0.985396
H	6.80377	-0.613773	1.24616
H	6.11849	-1.48698	-1.28115
H	3.20259	1.2817	0.0021801
H	4.92048	1.07639	1.89302
