18
  This energy is -0.8179 and Call times are: 89039
C	-0.291157	0.700129	0.843474
C	0.309923	1.14231	-0.298258
C	0.515919	-0.0174749	-1.10608
C	0.0225352	-1.06601	-0.386684
O	-0.474297	-0.646017	0.806538
H	-0.63358	1.2358	1.74406
H	0.581048	2.181	-0.546669
H	0.978516	-0.0567986	-2.10535
H	-0.0332642	-2.14407	-0.610099
C	6.1976	-0.247066	0.829387
C	6.36052	0.594069	-0.250935
N	5.23524	0.645341	-1.00435
C	4.37749	-0.160921	-0.393742
N	4.91037	-0.723065	0.716945
H	6.8837	-0.531127	1.64309
H	7.26985	1.16486	-0.500248
H	3.34626	-0.375726	-0.71724
H	4.43375	-1.39373	1.36833
