18
  This energy is -1.167 and Call times are: 165278
C	-0.7153	0.267192	0.838663
C	-0.0263982	1.21258	0.13722
C	0.756995	0.496587	-0.818687
C	0.477658	-0.823136	-0.617002
O	-0.419596	-0.981611	0.39138
H	-1.43645	0.353231	1.66799
H	-0.0659263	2.3046	0.27875
H	1.44563	0.923089	-1.56567
H	0.846517	-1.73334	-1.11772
C	3.99395	-0.746749	0.0808233
C	4.76144	-0.494752	-1.03658
N	5.7221	0.423897	-0.772517
C	5.55122	0.740601	0.503855
N	4.52166	0.0615407	1.06285
H	3.13814	-1.42156	0.241323
H	4.63923	-0.959336	-2.02859
H	6.1519	1.46369	1.07879
H	4.18883	0.136499	2.05525
