18
  This energy is -1.2675 and Call times are: 10972
C	-0.0483009	1.07926	0.345346
C	0.205279	0.737679	-0.950567
C	0.185291	-0.689972	-0.989694
C	-0.07874	-1.09478	0.285764
O	-0.224312	-0.0273989	1.11433
H	-0.128562	2.06098	0.840365
H	0.388072	1.42237	-1.7943
H	0.349504	-1.33227	-1.86979
H	-0.186813	-2.0995	0.726342
C	5.734	0.226731	0.21848
C	4.71713	0.125328	1.14414
N	3.53355	-0.145297	0.542128
C	3.81509	-0.21153	-0.75208
N	5.12874	0.00573503	-0.998487
H	6.80963	0.433618	0.335731
H	4.81628	0.242588	2.23559
H	3.09702	-0.416165	-1.56247
H	5.59696	0.00582021	-1.93765
