18
  This energy is -1.8294 and Call times are: 101313
C	0.717408	-0.678869	0.557551
C	0.769636	-0.514572	-0.795465
C	-0.277666	0.401237	-1.11884
C	-0.877432	0.715733	0.0651158
O	-0.282548	0.0650905	1.09942
H	1.3274	-1.28867	1.24406
H	1.47491	-0.990538	-1.49556
H	-0.54585	0.776509	-2.11951
H	-1.72465	1.38019	0.301685
C	5.3757	-1.04745	0.383121
C	6.13873	0.0840115	0.186335
N	5.37984	1.11317	-0.262473
C	4.1507	0.622037	-0.343806
N	4.09606	-0.676954	0.034648
H	5.64382	-2.05642	0.734749
H	7.22323	0.176197	0.360155
H	3.25373	1.17014	-0.674347
H	3.24169	-1.28585	0.0581402
