18
  This energy is -1.7752 and Call times are: 82199
C	-0.43494	-0.538607	0.898404
C	-0.637644	0.791684	0.675673
C	0.0575069	1.09589	-0.534428
C	0.623642	-0.0753645	-0.944347
O	0.333184	-1.08407	-0.0811202
H	-0.778686	-1.20534	1.70622
H	-1.21843	1.48882	1.30081
H	0.122864	2.07577	-1.03407
H	1.24713	-0.318825	-1.82027
C	4.0238	-0.851912	0.802504
C	3.60283	0.441709	1.02716
N	3.57697	1.15424	-0.125286
C	3.98036	0.305884	-1.06133
N	4.26182	-0.916896	-0.552233
H	4.1661	-1.70248	1.48794
H	3.31729	0.873679	2.00016
H	4.0877	0.527941	-2.1353
H	4.59741	-1.75481	-1.08753
