18
  This energy is -1.117 and Call times are: 594
C	0.664379	0.0626243	0.917104
C	0.354006	1.15659	0.163921
C	-0.489602	0.681686	-0.886275
C	-0.620273	-0.660561	-0.682144
O	0.0778751	-1.05576	0.414862
H	1.28397	-0.0501946	1.82189
H	0.685835	2.19391	0.331107
H	-0.941899	1.27759	-1.69524
H	-1.17448	-1.43416	-1.23861
C	6.51997	0.74306	-0.904744
C	5.38455	0.0445356	-0.552586
N	5.60205	-0.72027	0.544808
C	6.8676	-0.497058	0.872199
N	7.46434	0.378065	0.0286026
H	6.71624	1.45046	-1.72609
H	4.4123	0.0787025	-1.07068
H	7.40751	-0.948278	1.72021
H	8.45723	0.71444	0.0764273
