18
  This energy is -1.3015 and Call times are: 156368
C	-0.322028	0.677525	-0.850682
C	-0.25576	-0.678486	-0.981902
C	0.182771	-1.17287	0.284348
C	0.34577	-0.0753319	1.07758
O	0.0419189	1.06327	0.400619
H	-0.609517	1.46783	-1.56343
H	-0.491989	-1.27114	-1.88026
H	0.354153	-2.22506	0.56296
H	0.668453	0.027087	2.12669
C	4.76655	-0.932942	0.545019
C	4.08889	0.114785	1.1317
N	3.6884	1.01811	0.204266
C	4.11599	0.532627	-0.953362
N	4.77193	-0.642149	-0.800937
H	5.22989	-1.83481	0.975707
H	3.88176	0.235098	2.20756
H	3.97593	0.996869	-1.94285
H	5.20255	-1.22115	-1.5629
