18
  This energy is -0.7116 and Call times are: 196531
C	-0.303271	0.983795	0.475999
C	0.98073	0.719889	0.0990799
C	0.963705	-0.598187	-0.450925
C	-0.329197	-1.02338	-0.361554
O	-1.11673	-0.069896	0.202071
H	-0.760232	1.87144	0.943468
H	1.85241	1.38652	0.198395
H	1.81956	-1.15669	-0.862836
H	-0.809846	-1.96971	-0.659362
C	6.98942	-0.72423	-0.263649
C	7.03521	0.652183	-0.196289
N	5.82569	1.16567	0.135257
C	5.03258	0.111816	0.273056
N	5.68732	-1.05092	0.0429296
H	7.76541	-1.46951	-0.500166
H	7.9193	1.28394	-0.380979
H	3.96405	0.134809	0.541303
H	5.28055	-2.01717	0.0892294
