18
  This energy is -0.8743 and Call times are: 181427
C	-0.822747	0.136514	-0.76867
C	0.27648	-0.635757	-1.00462
C	1.06954	-0.5597	0.180874
C	0.384926	0.252334	1.03661
O	-0.773044	0.686574	0.473093
H	-1.699	0.371826	-1.39481
H	0.505847	-1.20216	-1.9215
H	2.03604	-1.05541	0.365898
H	0.61213	0.593473	2.05996
C	5.71388	1.07616	-0.235954
C	5.76027	0.418928	0.97526
N	5.18907	-0.806906	0.888212
C	4.78985	-0.909757	-0.372211
N	5.08336	0.199822	-1.09074
H	6.07296	2.07224	-0.539966
H	6.19565	0.807285	1.91039
H	4.2776	-1.77562	-0.821772
H	4.87105	0.361694	-2.10562
