18
  This energy is -1.3755 and Call times are: 193879
C	0.436516	0.97861	-0.371722
C	-0.18401	0.868315	0.837888
C	-0.591636	-0.496396	0.945222
C	-0.184221	-1.09958	-0.208272
O	0.445469	-0.213601	-1.02408
H	0.90711	1.83837	-0.876303
H	-0.339131	1.66778	1.58011
H	-1.12564	-0.965424	1.78721
H	-0.280797	-2.13868	-0.563509
C	4.73473	-1.14203	0.16049
C	5.46633	-0.244014	-0.587489
N	4.90721	0.98998	-0.553575
C	3.83283	0.858	0.212529
N	3.68518	-0.408816	0.667469
H	4.8818	-2.21517	0.361185
H	6.38759	-0.464387	-1.15101
H	3.1197	1.65669	0.472855
H	2.91746	-0.764667	1.28814
