18
  This energy is -0.8141 and Call times are: 63095
C	0.934891	-0.626426	-0.141316
C	0.286719	-0.0356259	-1.18592
C	-0.825953	0.654835	-0.615534
C	-0.759494	0.425015	0.727276
O	0.309692	-0.355624	1.03461
H	1.83899	-1.25607	-0.103803
H	0.564287	-0.0814468	-2.25126
H	-1.5826	1.25079	-1.1507
H	-1.40357	0.756077	1.55843
C	6.1955	0.82776	0.258997
C	5.18627	0.913855	-0.676512
N	4.45465	-0.226303	-0.712336
C	5.0079	-1.01672	0.197489
N	6.06121	-0.426734	0.81072
H	6.9738	1.54646	0.561088
H	4.97291	1.77823	-1.32627
H	4.68147	-2.03722	0.454877
H	6.66125	-0.845213	1.56311
