18
  This energy is -0.597 and Call times are: 49264
C	0.755523	-0.698264	-0.477507
C	-0.0650594	0.104227	-1.21441
C	-0.859789	0.823203	-0.270166
C	-0.454697	0.396598	0.960396
O	0.531158	-0.532641	0.852621
H	1.5314	-1.42206	-0.776486
H	-0.106554	0.182074	-2.31273
H	-1.63998	1.56933	-0.490821
H	-0.784609	0.673186	1.97524
C	5.23723	0.627926	-0.742656
C	4.82999	-0.438928	0.0300814
N	5.8557	-0.926324	0.769598
C	6.8953	-0.164734	0.456827
N	6.57358	0.787034	-0.451042
H	4.68893	1.26395	-1.45566
H	3.81445	-0.865704	0.0672526
H	7.9151	-0.260485	0.863106
H	7.21914	1.50868	-0.855694
