18
  This energy is -1.1907 and Call times are: 28799
C	-0.0613621	-0.710471	-0.881968
C	0.188376	0.62186	-1.03329
C	0.188472	1.17183	0.284906
C	-0.0612157	0.127034	1.1254
O	-0.216431	-1.03015	0.429813
H	-0.152287	-1.52555	-1.6186
H	0.355737	1.16307	-1.97837
H	0.355921	2.22424	0.565081
H	-0.152007	0.0771898	2.2229
C	4.86206	-0.169518	-1.1533
C	3.86634	0.575953	-0.558358
N	3.98075	0.554998	0.79182
C	5.04341	-0.2006	1.03358
N	5.60988	-0.661276	-0.106812
H	5.08401	-0.377927	-2.212
H	3.06742	1.12855	-1.07915
H	5.45035	-0.448855	2.02706
H	6.45729	-1.27594	-0.179879
