18
  This energy is -0.6513 and Call times are: 102151
C	1.02089	0.321623	-0.375159
C	0.0410204	-0.122144	-1.21379
C	-1.07823	-0.427211	-0.380525
C	-0.683515	-0.142935	0.893743
O	0.59569	0.315505	0.915647
H	2.04962	0.666308	-0.570472
H	0.100432	-0.224404	-2.30928
H	-2.05915	-0.813028	-0.701506
H	-1.21211	-0.22272	1.85784
C	6.86185	0.473945	0.48509
C	6.63843	0.245331	-0.856164
N	5.42143	-0.314815	-1.06028
C	4.89187	-0.433251	0.149752
N	5.72148	0.0283196	1.1153
H	7.72292	0.907742	1.01792
H	7.33356	0.474529	-1.68025
H	3.89987	-0.851031	0.385613
H	5.53209	0.0437769	2.14736
