18
  This energy is -0.9834 and Call times are: 192918
C	0.572669	-0.234955	-0.950393
C	-0.615864	0.434123	-0.960279
C	-1.01882	0.535577	0.406268
C	-0.0409539	-0.0804597	1.1306
O	0.938831	-0.556917	0.31818
H	1.24713	-0.539332	-1.76753
H	-1.15476	0.817739	-1.84148
H	-1.93226	1.01349	0.795259
H	0.0728339	-0.243674	2.21488
C	4.22999	0.284816	-0.924691
C	4.53965	1.08885	0.151776
N	5.33604	0.438324	1.03444
C	5.51973	-0.764703	0.507556
N	4.87324	-0.906591	-0.673757
H	3.61781	0.469973	-1.82163
H	4.2027	2.12669	0.307363
H	6.11845	-1.57986	0.944919
H	4.8638	-1.76133	-1.28252
