18
  This energy is -1.5952 and Call times are: 63023
C	-0.256841	-1.10063	0.0950983
C	0.940765	-0.592047	0.504311
C	0.887561	0.807468	0.223873
C	-0.33786	1.03056	-0.331955
O	-1.05004	-0.12372	-0.41821
H	-0.660638	-2.12621	0.114634
H	1.77768	-1.14677	0.958123
H	1.67503	1.55358	0.417018
H	-0.815685	1.95227	-0.702623
C	4.63086	1.12085	-0.357528
C	4.73456	0.662622	0.938779
N	4.65855	-0.689579	0.986598
C	4.50826	-1.06877	-0.275246
N	4.4855	-0.0138935	-1.12395
H	4.64959	2.14015	-0.774938
H	4.86287	1.28347	1.84041
H	4.41	-2.10619	-0.633489
H	4.37767	-0.0529899	-2.16707
