18
  This energy is -1.2168 and Call times are: 5698
C	0.893399	-0.698741	-0.000955716
C	1.01411	0.640916	0.225144
C	-0.309705	1.17149	0.146925
C	-1.12252	0.109219	-0.120067
O	-0.404556	-1.0409	-0.213686
H	1.64455	-1.50483	-0.0362448
H	1.94227	1.19945	0.426777
H	-0.612027	2.22319	0.275855
H	-2.21334	0.0413656	-0.26419
C	6.20943	0.808749	0.804107
C	6.47327	-0.525554	1.03032
N	6.77544	-1.16657	-0.1248
C	6.69936	-0.233478	-1.06405
N	6.3613	0.974656	-0.554421
H	5.93355	1.62474	1.49083
H	6.45099	-1.0372	2.00632
H	6.88139	-0.380634	-2.14082
H	6.23832	1.8676	-1.0918
