18
  This energy is -1.0484 and Call times are: 70622
C	-0.923209	0.411429	-0.5146
C	0.316571	0.949365	-0.698839
C	1.20424	0.169929	0.104061
C	0.428534	-0.775503	0.708064
O	-0.873429	-0.642833	0.341593
H	-1.90743	0.683821	-0.929777
H	0.579616	1.80883	-1.3362
H	2.29236	0.304911	0.212991
H	0.679415	-1.58762	1.41004
C	6.76208	0.333145	-1.11707
C	6.62899	-0.957075	-0.649344
N	6.45574	-0.974183	0.694606
C	6.48125	0.300575	1.05925
N	6.66355	1.12806	0.00301735
H	6.91484	0.728692	-2.1338
H	6.65487	-1.87592	-1.25754
H	6.37128	0.683712	2.08655
H	6.71923	2.1756	0.0318509
