18
  This energy is -0.6015 and Call times are: 137554
C	-0.875631	0.513664	0.505788
C	-0.945949	0.0376869	-0.770486
C	0.334646	-0.531468	-1.04663
C	1.07447	-0.353051	0.0852677
O	0.351083	0.283588	1.04361
H	-1.61916	1.02868	1.13601
H	-1.81266	0.0828496	-1.44936
H	0.65824	-1.01533	-1.98219
H	2.11277	-0.629961	0.331261
C	6.64288	0.760392	-0.504997
C	6.50178	-0.578926	-0.800738
N	5.55135	-1.15334	-0.0240561
C	5.10452	-0.174091	0.750571
N	5.73126	0.999571	0.498956
H	7.30541	1.5344	-0.923943
H	7.06875	-1.14106	-1.56062
H	4.3195	-0.261639	1.51889
H	5.5561	1.91695	0.977483
