18
  This energy is -0.8161 and Call times are: 201006
C	-0.52239	0.143365	0.996472
C	-0.690826	-0.977733	0.238089
C	0.117684	-0.788711	-0.924107
C	0.708816	0.431208	-0.773331
O	0.329167	1.0145	0.393993
H	-0.946686	0.437753	1.97041
H	-1.32118	-1.85028	0.473469
H	0.238829	-1.48557	-1.76898
H	1.40948	0.988602	-1.41647
C	5.46552	-1.15633	-0.143547
C	4.34047	-0.43345	-0.479476
N	4.49336	0.878137	-0.17472
C	5.70864	0.968588	0.348282
N	6.33533	-0.231077	0.388929
H	5.70088	-2.22795	-0.242426
H	3.42117	-0.834782	-0.936284
H	6.18902	1.88896	0.717594
H	7.30002	-0.420323	0.756111
