18
  This energy is -1.2173 and Call times are: 191146
C	0.313929	0.846385	-0.686645
C	1.05797	-0.286908	-0.536907
C	0.34582	-1.10188	0.39518
C	-0.770541	-0.394654	0.732745
O	-0.806225	0.797606	0.0813966
H	0.470918	1.7482	-1.30093
H	2.01254	-0.525089	-1.03305
H	0.638452	-2.09756	0.765405
H	-1.60444	-0.626791	1.41537
C	4.68603	0.722397	0.922088
C	5.07181	-0.601051	0.950441
N	5.0962	-1.12974	-0.29712
C	4.72696	-0.138042	-1.09639
N	4.46864	0.999712	-0.409087
H	4.55518	1.46182	1.7281
H	5.33298	-1.1839	1.84873
H	4.62921	-0.190625	-2.1927
H	4.16132	1.91811	-0.813255
