18
  This energy is -1.1194 and Call times are: 165966
C	0.662956	-0.90418	-0.171315
C	0.484889	0.0609599	-1.11851
C	-0.403251	1.01801	-0.539383
C	-0.68951	0.553223	0.710577
O	-0.0468861	-0.619673	0.952158
H	1.26115	-1.83014	-0.174493
H	0.933914	0.0954811	-2.12413
H	-0.779745	1.9421	-1.00672
H	-1.32707	0.958902	1.51319
C	5.2617	0.0814014	-1.031
C	4.26372	-0.810776	-0.700557
N	3.84228	-0.622587	0.573603
C	4.57602	0.382516	1.03187
N	5.44685	0.841642	0.102113
H	5.83415	0.224337	-1.96127
H	3.84022	-1.58689	-1.35869
H	4.51652	0.82182	2.04069
H	6.13244	1.62709	0.221646
