18
  This energy is -1.1667 and Call times are: 129217
C	0.479235	1.01376	0.170347
C	0.952541	-0.125072	0.752934
C	0.098607	-1.17815	0.303544
C	-0.821143	-0.589865	-0.513988
O	-0.603695	0.748463	-0.606757
H	0.819885	2.06059	0.228271
H	1.81635	-0.214584	1.4311
H	0.168692	-2.24648	0.564009
H	-1.66866	-1.00828	-1.08135
C	5.75139	-0.255588	0.771302
C	4.70086	-1.06744	0.399243
N	3.90797	-0.453553	-0.51234
C	4.4645	0.734621	-0.70507
N	5.57862	0.902177	0.046098
H	6.58199	-0.414497	1.47727
H	4.50082	-2.08514	0.77223
H	4.0974	1.52025	-1.38496
H	6.19364	1.75211	0.071262
