18
  This energy is -1.9675 and Call times are: 77053
C	0.362364	0.847492	0.660946
C	0.0651571	-0.388492	1.1553
C	-0.349931	-1.1689	0.0333438
C	-0.269735	-0.340918	-1.04758
O	0.163551	0.89444	-0.682661
H	0.7198	1.76591	1.15491
H	0.131563	-0.717635	2.20475
H	-0.669346	-2.22342	0.0399467
H	-0.489853	-0.50836	-2.1147
C	3.71183	0.146551	-1.15248
C	3.19259	-0.846347	-0.348929
N	3.61839	-0.712051	0.930591
C	4.39881	0.360083	0.920858
N	4.48722	0.913519	-0.311815
H	3.58854	0.354677	-2.2272
H	2.51836	-1.65721	-0.669494
H	4.93019	0.78348	1.78838
H	5.04094	1.76469	-0.57668
