18
  This energy is -0.7317 and Call times are: 109511
C	1.02395	0.269229	-0.406741
C	0.613145	-1.02303	-0.259514
C	-0.710814	-0.954275	0.272014
C	-0.992184	0.373931	0.402675
O	0.0560926	1.13561	-0.007179
H	1.96858	0.698125	-0.77954
H	1.18506	-1.93336	-0.500987
H	-1.3695	-1.80069	0.524594
H	-1.88971	0.898495	0.769446
C	4.95611	-0.103612	-0.813763
C	5.60453	1.05334	-0.436735
N	6.52143	0.80669	0.530205
C	6.44213	-0.498322	0.752195
N	5.51278	-1.09223	-0.0334162
H	4.16435	-0.287261	-1.55735
H	5.42719	2.06163	-0.845088
H	7.04139	-1.07028	1.47881
H	5.26375	-2.11159	-0.0457285
