18
  This energy is -1.3565 and Call times are: 105563
C	-0.290749	0.678577	-0.861046
C	0.120112	1.16456	0.34535
C	0.392481	0.0202636	1.15561
C	0.124017	-1.06396	0.372827
O	-0.294392	-0.680466	-0.862031
H	-0.603823	1.189	-1.78663
H	0.221236	2.22269	0.63555
H	0.74677	0.014787	2.19894
H	0.189918	-2.14571	0.574644
C	3.89723	0.546215	0.665063
C	3.87331	-0.769095	0.252109
N	4.95918	-1.06393	-0.503189
C	5.6541	0.0641816	-0.55859
N	5.0554	1.06458	0.130148
H	3.19546	1.13055	1.28118
H	3.09199	-1.51062	0.485622
H	6.60809	0.212948	-1.08962
H	5.40657	2.04776	0.236415
