18
  This energy is -1.309 and Call times are: 80156
C	0.441492	-0.0926295	1.04063
C	0.241001	-1.1736	0.233366
C	-0.321618	-0.66024	-0.974953
C	-0.41527	0.689125	-0.799411
O	0.0463	1.05321	0.425908
H	0.852344	-0.00763641	2.06005
H	0.466664	-2.22683	0.465495
H	-0.618907	-1.2363	-1.86595
H	-0.787248	1.48841	-1.46124
C	5.39407	0.474498	-0.38476
C	5.5803	-0.237798	0.781042
N	6.86889	-0.637408	0.908941
C	7.47974	-0.174778	-0.1734
N	6.63323	0.502623	-0.984656
H	4.49733	0.947586	-0.81557
H	4.80797	-0.470533	1.53216
H	8.54562	-0.303387	-0.421569
H	6.87483	0.961775	-1.89683
