18
  This energy is -1.5773 and Call times are: 197044
C	0.878789	0.701519	-0.148326
C	0.235774	0.579103	1.0483
C	-0.798251	-0.383934	0.839809
C	-0.695832	-0.765002	-0.465822
O	0.323042	-0.11209	-1.08438
H	1.73378	1.32445	-0.458501
H	0.466465	1.11337	1.98395
H	-1.52868	-0.744801	1.58166
H	-1.27959	-1.48204	-1.0661
C	4.10134	-0.971482	0.438922
C	5.02236	-0.904378	-0.584972
N	5.38482	0.377675	-0.832913
C	4.69129	1.10316	0.0338685
N	3.90259	0.33586	0.823037
H	3.59032	-1.82846	0.905824
H	5.43183	-1.75807	-1.14924
H	4.72312	2.2001	0.13361
H	3.26178	0.672675	1.58276
