18
  This energy is -0.8671 and Call times are: 166281
C	1.12757	-0.121293	-0.0165564
C	0.467955	0.432486	1.04109
C	-0.917032	0.411511	0.692532
C	-0.981499	-0.153234	-0.547339
O	0.257913	-0.484724	-0.995651
H	2.19938	-0.310189	-0.192043
H	0.912131	0.817161	1.9732
H	-1.76019	0.77669	1.30066
H	-1.83676	-0.371314	-1.20781
C	5.16814	-1.12907	0.0130088
C	5.99252	-0.498362	0.920622
N	6.16323	0.807358	0.600519
C	5.44748	0.986005	-0.501486
N	4.82844	-0.151921	-0.895823
H	4.8111	-2.1694	-0.048407
H	6.46718	-0.962066	1.80069
H	5.34197	1.92969	-1.06055
H	4.20793	-0.267752	-1.73416
