18
  This energy is -0.8815 and Call times are: 190537
C	-0.521099	-0.316662	-0.956338
C	0.722701	-0.763899	-0.619716
C	1.03224	-0.152306	0.633383
C	-0.0497319	0.614677	0.951892
O	-1.0079	0.526195	-0.00784848
H	-1.15956	-0.52125	-1.83142
H	1.35844	-1.45514	-1.19602
H	1.95569	-0.275073	1.22183
H	-0.257504	1.26106	1.82038
C	6.66845	-0.170504	-0.463061
C	5.45651	-0.305937	-1.10648
N	4.42598	-0.0318386	-0.270175
C	4.99645	0.27248	0.887659
N	6.34723	0.203372	0.822715
H	7.70229	-0.309101	-0.817352
H	5.30721	-0.596517	-2.15915
H	4.47199	0.553211	1.81521
H	7.02138	0.397595	1.60314
