18
  This energy is -1.1878 and Call times are: 42756
C	-1.08299	0.332892	0.0520658
C	-0.721426	-0.982154	0.0693229
C	0.704542	-0.996684	-0.0114256
C	1.08848	0.310766	-0.0708982
O	0.00969707	1.13649	-0.0332513
H	-2.07097	0.820099	0.0942834
H	-1.39164	-1.85445	0.132569
H	1.35975	-1.88249	-0.0232345
H	2.0846	0.777757	-0.141034
C	4.90829	1.10574	0.392458
C	4.59472	-0.0459833	1.08264
N	4.82242	-1.14665	0.325545
C	5.27552	-0.679528	-0.829928
N	5.34556	0.672728	-0.839404
H	4.85306	2.16742	0.681108
H	4.20826	-0.10247	2.11333
H	5.57076	-1.28372	-1.70286
H	5.67096	1.27631	-1.6338
