18
  This energy is -1.4295 and Call times are: 36250
C	-0.936913	-0.271475	-0.578702
C	0.146395	0.306842	-1.17231
C	1.10879	0.492622	-0.13337
C	0.528637	0.0114329	1.0034
O	-0.72088	-0.459148	0.749876
H	-1.90908	-0.593474	-0.986692
H	0.256712	0.575645	-2.23517
H	2.11365	0.934107	-0.230545
H	0.895551	-0.0520709	2.04099
C	4.46408	-0.425769	1.04449
C	5.20738	0.712684	0.815231
N	5.41059	0.904766	-0.510788
C	4.79568	-0.110663	-1.1019
N	4.20965	-0.940867	-0.206957
H	4.10997	-0.890333	1.97848
H	5.60069	1.39891	1.58286
H	4.7435	-0.294442	-2.18714
H	3.66521	-1.81112	-0.424884
