18
  This energy is -1.3036 and Call times are: 209469
C	-1.11718	0.192917	-0.033092
C	-0.596421	-1.04352	0.212674
C	0.822541	-0.884969	0.173623
C	1.04363	0.434365	-0.0925591
O	-0.129865	1.10757	-0.221857
H	-2.15887	0.547571	-0.0990603
H	-1.15543	-1.9739	0.402425
H	1.58245	-1.66797	0.327076
H	1.97628	1.00963	-0.212863
C	5.6801	-1.12552	0.334472
C	6.65484	-0.376448	-0.28996
N	6.22227	0.885044	-0.530851
C	4.98388	0.918435	-0.0576611
N	4.61058	-0.269518	0.47432
H	5.67212	-2.17225	0.677765
H	7.66248	-0.723629	-0.570982
H	4.30606	1.78705	-0.0750136
H	3.68312	-0.495441	0.910254
