18
  This energy is -1.3221 and Call times are: 94087
C	0.365149	-0.846043	0.66127
C	0.764946	0.445652	0.840321
C	0.100512	1.20437	-0.171109
C	-0.646657	0.309339	-0.878945
O	-0.49705	-0.94764	-0.384342
H	0.618734	-1.77171	1.20358
H	1.4582	0.826025	1.60766
H	0.176179	2.28997	-0.343887
H	-1.31757	0.439358	-1.74395
C	4.49011	0.0698229	0.936096
C	5.83925	0.351765	0.897828
N	6.34258	0.164001	-0.346327
C	5.30961	-0.232915	-1.07712
N	4.16991	-0.305479	-0.349519
H	3.75959	0.108408	1.75974
H	6.45849	0.687301	1.74565
H	5.33215	-0.483582	-2.14992
H	3.22279	-0.592877	-0.698288
