18
  This energy is -1.2411 and Call times are: 84279
C	0.447662	0.25768	-1.00975
C	-0.228352	-0.905617	-0.785876
C	-0.632431	-0.865693	0.583519
C	-0.167674	0.318476	1.07557
O	0.494365	1.0173	0.116218
H	0.936315	0.656969	-1.91365
H	-0.422941	-1.71103	-1.51219
H	-1.20261	-1.634	1.13005
H	-0.241256	0.773315	2.07705
C	4.0711	-0.678086	-0.249881
C	4.05563	0.665783	0.0582131
N	5.30804	1.12816	0.291002
C	6.09747	0.0751449	0.127944
N	5.39926	-1.03807	-0.198944
H	3.25808	-1.38031	-0.493643
H	3.16323	1.31002	0.116701
H	7.19403	0.0636252	0.235828
H	5.7944	-1.99338	-0.379235
