18
  This energy is -1.6326 and Call times are: 23676
C	-0.0397983	-0.560088	-0.985453
C	0.415193	-1.13602	0.16418
C	0.312111	-0.130002	1.17285
C	-0.196772	0.971889	0.550557
O	-0.417705	0.727103	-0.767882
H	-0.143438	-0.954738	-2.00954
H	0.786188	-2.16597	0.289347
H	0.587293	-0.22486	2.23557
H	-0.44384	1.97702	0.92993
C	3.8168	-0.471701	-0.834163
C	4.53475	0.702421	-0.918629
N	5.2127	0.944283	0.229584
C	4.91646	-0.0759148	1.02335
N	4.07813	-0.956869	0.427782
H	3.16031	-0.979389	-1.5586
H	4.57571	1.37936	-1.7875
H	5.28598	-0.227303	2.05037
H	3.69938	-1.84103	0.847392
