18
  This energy is -1.2244 and Call times are: 39466
C	-0.290716	0.106364	1.09113
C	0.44009	-0.948689	0.629442
C	0.599788	-0.72985	-0.772957
C	-0.047526	0.439615	-1.04445
O	-0.597222	0.964018	0.0824232
H	-0.652533	0.358814	2.10139
H	0.827811	-1.79605	1.21745
H	1.13595	-1.3738	-1.48847
H	-0.187139	0.996559	-1.9855
C	4.02227	-0.0291365	0.654434
C	4.92337	1.0101	0.558839
N	5.93573	0.7027	-0.288007
C	5.6637	-0.522584	-0.716145
N	4.52022	-1.00753	-0.176813
H	3.0929	-0.138057	1.23577
H	4.86118	1.97621	1.08574
H	6.26822	-1.11118	-1.4249
H	4.09416	-1.94939	-0.357459
