18
  This energy is -1.322 and Call times are: 96004
C	0.447008	-0.769589	-0.703077
C	0.898469	0.516179	-0.645136
C	0.0984449	1.16733	0.342831
C	-0.771275	0.221992	0.801408
O	-0.572547	-0.966873	0.17362
H	0.763229	-1.62849	-1.31752
H	1.71313	0.961419	-1.23858
H	0.169492	2.21781	0.667692
H	-1.56821	0.269103	1.56162
C	4.58277	0.542668	1.03772
C	5.11221	-0.710732	0.814509
N	5.09308	-1.02145	-0.50443
C	4.55383	0.0351733	-1.0972
N	4.22905	1.0053	-0.210095
H	4.43752	1.11893	1.96528
H	5.50765	-1.39642	1.58152
H	4.37381	0.150995	-2.17813
H	3.79121	1.93312	-0.4308
