18
  This energy is -1.6829 and Call times are: 159609
C	0.0415338	1.06861	-0.377829
C	-0.881884	0.652189	0.535554
C	-0.616401	-0.733839	0.755922
C	0.445814	-1.04205	-0.0422504
O	0.860495	0.0468935	-0.74172
H	0.218074	2.05255	-0.842515
H	-1.67085	1.26007	1.00685
H	-1.1586	-1.41426	1.43205
H	0.991749	-1.98662	-0.200316
C	3.62278	1.01703	0.350717
C	3.84813	0.613128	-0.948216
N	4.41376	-0.617784	-0.986013
C	4.53884	-0.976141	0.284639
N	4.07624	-0.0242653	1.12934
H	3.18638	1.94096	0.762366
H	3.61271	1.18783	-1.85879
H	4.96241	-1.92459	0.652428
H	4.06513	-0.0706471	2.17767
