18
  This energy is -0.7971 and Call times are: 138760
C	0.0486684	0.285151	1.09669
C	1.09027	0.493084	0.240992
C	0.653813	0.0109219	-1.03068
C	-0.615966	-0.449089	-0.839824
O	-1.00166	-0.28946	0.453532
H	-0.068189	0.499075	2.17178
H	2.06787	0.941059	0.481197
H	1.22574	0.010731	-1.97248
H	-1.34011	-0.906046	-1.53413
C	6.33346	0.863546	-0.487967
C	6.55351	-0.492455	-0.606205
N	5.62958	-1.19981	0.0884234
C	4.83935	-0.286106	0.63551
N	5.22218	0.973286	0.317769
H	6.87109	1.72931	-0.906226
H	7.36239	-0.973077	-1.18028
H	3.96601	-0.484402	1.27754
H	4.76044	1.86368	0.626401
