18
  This energy is -1.3513 and Call times are: 138238
C	-0.449947	0.952813	-0.419638
C	0.288059	0.936986	0.727302
C	0.673594	-0.423981	0.925419
C	0.137149	-1.11968	-0.117944
O	-0.552296	-0.294629	-0.94919
H	-0.950019	1.77595	-0.95594
H	0.536075	1.79738	1.36941
H	1.27996	-0.828594	1.75168
H	0.17351	-2.19019	-0.378586
C	4.36249	0.0187276	1.12731
C	4.00044	0.910734	0.140198
N	4.57435	0.588157	-1.04432
C	5.28971	-0.499831	-0.793007
N	5.19476	-0.882876	0.502312
H	4.09567	-0.0364225	2.19469
H	3.3354	1.78129	0.261478
H	5.90172	-1.05624	-1.52108
H	5.66546	-1.70923	0.94597
