18
  This energy is -1.6567 and Call times are: 23804
C	-0.659652	0.91686	0.103089
C	0.455057	0.729465	0.866424
C	1.00875	-0.519544	0.449871
C	0.183518	-0.985142	-0.531241
O	-0.840694	-0.120562	-0.755975
H	-1.39778	1.73519	0.0755255
H	0.847993	1.40319	1.64475
H	1.91634	-1.00676	0.841015
H	0.215797	-1.90469	-1.1384
C	4.76318	0.58803	0.984911
C	5.17166	-0.68477	0.646873
N	4.68208	-1.04993	-0.562871
C	3.97257	-0.00762257	-0.973763
N	3.99043	1.00558	-0.0756038
H	4.96111	1.20561	1.87539
H	5.81086	-1.34615	1.2542
H	3.41976	0.0667267	-1.92408
H	3.5076	1.9326	-0.169264
