18
  This energy is -0.9974 and Call times are: 174148
C	-1.01519	-0.497214	0.0926143
C	0.149303	-1.20735	0.0995098
C	1.19539	-0.244263	-0.0357466
C	0.577797	0.969382	-0.113355
O	-0.772281	0.83369	-0.0366203
H	-2.06715	-0.81725	0.171339
H	0.260487	-2.29979	0.190694
H	2.27889	-0.441519	-0.070282
H	0.981351	1.98939	-0.222826
C	5.89947	-0.815994	-0.685404
C	5.97969	-0.727192	0.688213
N	5.28229	0.338849	1.1505
C	4.77137	0.909222	0.0677887
N	5.11478	0.250281	-1.06423
H	6.33086	-1.53841	-1.39643
H	6.52827	-1.41323	1.35398
H	4.13867	1.81115	0.0470098
H	4.83632	0.503416	-2.04384
