18
  This energy is -1.3315 and Call times are: 65744
C	-0.401334	-0.951582	-0.468852
C	0.205534	0.0247478	-1.20293
C	0.567509	1.04584	-0.272091
C	0.149886	0.60335	0.948632
O	-0.443973	-0.614862	0.847131
H	-0.839542	-1.92008	-0.760808
H	0.380712	0.0257828	-2.29077
H	1.07914	1.99598	-0.494731
H	0.215331	1.05561	1.95184
C	4.10481	0.980409	-0.422708
C	3.98564	0.478123	0.855827
N	4.69027	-0.67081	0.997089
C	5.24448	-0.880493	-0.189298
N	4.92167	0.0873985	-1.07956
H	3.6803	1.88012	-0.895827
H	3.40385	0.924162	1.67888
H	5.89551	-1.72712	-0.460597
H	5.23413	0.14633	-2.07964
