18
  This energy is -0.566 and Call times are: 60370
C	-1.13037	0.0594994	0.0716385
C	-0.484165	-0.16736	-1.10791
C	0.909554	-0.172838	-0.795442
C	0.992	0.0511573	0.547466
O	-0.244309	0.195382	1.09313
H	-2.20254	0.145332	0.313154
H	-0.942923	-0.315939	-2.09865
H	1.74625	-0.326508	-1.49574
H	1.85905	0.129368	1.22375
C	5.8491	0.787007	-0.67987
C	5.27287	-0.0444196	0.257055
N	6.20471	-0.823918	0.857521
C	7.35466	-0.477389	0.295248
N	7.19312	0.490282	-0.638084
H	5.41242	1.54359	-1.35101
H	4.20144	-0.0958016	0.510527
H	8.34478	-0.900415	0.529655
H	7.94791	0.930611	-1.21917
