18
  This energy is -1.3091 and Call times are: 86762
C	0.229202	-0.891579	0.662537
C	-0.0890235	-1.0248	-0.657068
C	-0.30573	0.300807	-1.14277
C	-0.1008	1.12707	-0.0771005
O	0.226715	0.415806	1.03368
H	0.475139	-1.63925	1.43439
H	-0.163671	-1.9625	-1.23088
H	-0.581804	0.595261	-2.16804
H	-0.156387	2.22386	0.0189373
C	4.19854	1.04301	0.213917
C	3.64862	-0.0122472	-0.482624
N	4.50531	-1.06085	-0.537599
C	5.5826	-0.657653	0.122326
N	5.44686	0.604024	0.594913
H	3.80308	2.04196	0.457319
H	2.64905	-0.0357679	-0.946489
H	6.49908	-1.24622	0.289293
H	6.15723	1.1448	1.14647
