18
  This energy is -0.9346 and Call times are: 50248
C	1.07814	0.350626	0.03267
C	0.200421	0.775644	-0.920921
C	-1.0369	0.12316	-0.632104
C	-0.806061	-0.642981	0.472484
O	0.480407	-0.516201	0.891933
H	2.14063	0.587857	0.206175
H	0.403876	1.47816	-1.74504
H	-1.98353	0.219193	-1.18777
H	-1.46519	-1.31362	1.04785
C	5.80798	-0.498847	1.06046
C	6.78724	0.170047	0.357049
N	6.31572	0.616823	-0.83231
C	5.04877	0.22658	-0.866611
N	4.69462	-0.449974	0.251621
H	5.82408	-0.989797	2.04649
H	7.82553	0.33828	0.68642
H	4.33561	0.409697	-1.68643
H	3.75159	-0.859305	0.462318
