18
  This energy is -0.7653 and Call times are: 24413
C	-0.111841	1.1193	-0.145099
C	-1.13264	0.335772	0.307031
C	-0.612906	-0.993737	0.355979
C	0.679617	-0.905286	-0.0705596
O	1.0025	0.377882	-0.38078
H	-0.0525697	2.20288	-0.339004
H	-2.14961	0.661372	0.578809
H	-1.14678	-1.90391	0.673254
H	1.46205	-1.67159	-0.196359
C	5.5287	-0.922654	0.0528757
C	4.69506	-0.585434	-0.992339
N	3.99459	0.540989	-0.714819
C	4.39216	0.901202	0.49795
N	5.31656	0.0506637	1.00358
H	6.23436	-1.7585	0.183085
H	4.58648	-1.13473	-1.94173
H	4.03871	1.77913	1.06234
H	5.78283	0.119543	1.94119
