18
  This energy is -0.7731 and Call times are: 175430
C	1.05741	0.0422995	0.408039
C	0.641716	0.828024	-0.62647
C	-0.728508	0.490775	-0.847529
C	-1.02918	-0.471266	0.0714095
O	0.0498461	-0.757412	0.846547
H	2.0316	-0.041039	0.917212
H	1.23997	1.5706	-1.17852
H	-1.40387	0.919884	-1.60506
H	-1.96152	-1.02385	0.273001
C	6.25851	0.937622	-0.440477
C	6.70528	0.104266	0.563048
N	5.80638	-0.876824	0.819869
C	4.80577	-0.65296	-0.0211326
N	5.03075	0.429898	-0.80241
H	6.71225	1.82639	-0.907108
H	7.66012	0.193339	1.10637
H	3.88432	-1.25113	-0.106848
H	4.39166	0.810231	-1.5428
