18
  This energy is -0.9565 and Call times are: 64385
C	0.343204	-0.388468	1.00881
C	0.139842	0.93853	0.767785
C	-0.2808	1.02856	-0.594226
C	-0.297354	-0.251369	-1.06527
O	0.0809541	-1.12974	-0.0996783
H	0.66983	-0.925368	1.91452
H	0.272718	1.77052	1.47787
H	-0.538907	1.94424	-1.15012
H	-0.55601	-0.663003	-2.05466
C	6.06273	-0.272338	0.619741
C	5.95156	-0.213981	-0.75335
N	4.69595	0.132235	-1.12764
C	4.03071	0.288067	0.008923
N	4.81099	0.0553544	1.09086
H	6.91556	-0.515749	1.27316
H	6.75485	-0.415486	-1.48066
H	2.97042	0.571879	0.106247
H	4.51821	0.11348	2.09692
