18
  This energy is -1.569 and Call times are: 166473
C	-1.05765	0.27312	-0.305266
C	-0.464883	0.783967	0.811891
C	0.843351	0.212431	0.856458
C	0.934543	-0.59722	-0.237399
O	-0.217362	-0.572251	-0.958166
H	-2.05904	0.430507	-0.738511
H	-0.904755	1.49221	1.5323
H	1.61947	0.389437	1.6183
H	1.75343	-1.23507	-0.608634
C	4.41085	0.838853	0.803518
C	4.50724	1.00722	-0.561584
N	4.72908	-0.175263	-1.1853
C	4.77015	-1.0738	-0.210845
N	4.58364	-0.51204	1.00704
H	4.23731	1.56067	1.6174
H	4.4207	1.96075	-1.10762
H	4.9338	-2.15659	-0.333423
H	4.57274	-1.01058	1.9304
