18
  This energy is -0.6905 and Call times are: 151826
C	0.842328	-0.635236	0.416364
C	-0.453422	-1.06079	0.398774
C	-1.20538	7.35505e-05	-0.192189
C	-0.302767	0.980256	-0.48356
O	0.952685	0.60919	-0.118646
H	1.76541	-1.11754	0.777691
H	-0.840836	-2.02502	0.765194
H	-2.29174	0.0219073	-0.375065
H	-0.425968	1.97404	-0.944502
C	4.93219	0.0422246	-0.139779
C	5.89012	0.343538	-1.08463
N	7.13874	0.186372	-0.581891
C	6.95613	-0.210932	0.670078
N	5.64307	-0.313072	0.98477
H	3.83165	0.0550639	-0.186502
H	5.70267	0.67152	-2.12007
H	7.74909	-0.440902	1.39984
H	5.2428	-0.606932	1.90927
