18
  This energy is -1.3269 and Call times are: 41049
C	0.871405	0.377798	-0.619938
C	-0.412084	0.388209	-1.08137
C	-1.21006	-0.157299	-0.0298199
C	-0.343767	-0.452906	0.981377
O	0.931631	-0.132616	0.638181
H	1.81766	0.701635	-1.0836
H	-0.761827	0.744307	-2.0637
H	-2.30152	-0.308247	-0.0347369
H	-0.507822	-0.888088	1.98085
C	4.13386	-0.796151	0.0322993
C	4.48096	0.0899505	1.03004
N	5.5282	0.863497	0.653985
C	5.82964	0.45882	-0.57239
N	5.0176	-0.540142	-0.992224
H	3.34677	-1.56514	-0.0194374
H	3.99451	0.184969	2.01451
H	6.6355	0.85979	-1.20804
H	5.05424	-1.0269	-1.92119
