18
  This energy is -1.4471 and Call times are: 190377
C	0.908284	0.251161	-0.631142
C	0.912266	-0.759181	0.285137
C	-0.391809	-0.763749	0.867791
C	-1.07757	0.244204	0.256128
O	-0.298909	0.874649	-0.66215
H	1.69005	0.621518	-1.31447
H	1.74953	-1.43358	0.526513
H	-0.766672	-1.4424	1.65074
H	-2.1103	0.608206	0.383509
C	4.92035	0.804193	0.830549
C	4.71372	1.03705	-0.512666
N	4.48675	-0.120403	-1.17998
C	4.55233	-1.0677	-0.254266
N	4.81161	-0.560972	0.974385
H	5.13009	1.49046	1.66637
H	4.72433	2.01948	-1.01224
H	4.41822	-2.14856	-0.421599
H	4.9109	-1.10448	1.86657
