18
  This energy is -1.4025 and Call times are: 200654
C	-0.282288	0.957556	-0.538332
C	-0.936928	0.527076	0.578139
C	-0.301627	-0.694731	0.957214
C	0.685153	-0.903023	0.0389261
O	0.711327	0.0962877	-0.881783
H	-0.425651	1.84799	-1.17223
H	-1.78238	1.02043	1.08401
H	-0.556574	-1.33704	1.81543
H	1.42575	-1.71261	-0.0675268
C	4.55219	0.573837	-1.01684
C	3.78298	0.694913	0.121056
N	4.23793	-0.115961	1.10696
C	5.2854	-0.737718	0.582695
N	5.51578	-0.35606	-0.695919
H	4.48434	1.06714	-1.99948
H	2.90788	1.35283	0.248313
H	5.91932	-1.48196	1.09111
H	6.28237	-0.702512	-1.32327
