18
  This energy is -1.3167 and Call times are: 38158
C	0.695539	-0.694065	0.566481
C	0.677763	0.653449	0.776871
C	-0.313531	1.17455	-0.109643
C	-0.814013	0.0994709	-0.783511
O	-0.209186	-1.04986	-0.383202
H	1.29737	-1.49733	1.02236
H	1.30027	1.22332	1.48528
H	-0.612428	2.22877	-0.225247
H	-1.59147	0.0212687	-1.56113
C	5.34759	-0.929469	-0.47045
C	4.13647	-0.397988	-0.860121
N	3.80504	0.672812	-0.098506
C	4.80675	0.805122	0.760385
N	5.76179	-0.137105	0.576825
H	5.92478	-1.78687	-0.851577
H	3.49585	-0.767984	-1.67717
H	4.89148	1.57463	1.54455
H	6.64879	-0.243722	1.12739
