18
  This energy is -1.0572 and Call times are: 188996
C	1.11159	0.190881	-0.119744
C	0.536038	-0.0348416	1.09606
C	-0.855617	-0.229148	0.83982
C	-1.00764	-0.105012	-0.50994
O	0.18354	0.151614	-1.11181
H	2.15681	0.389708	-0.408222
H	1.04084	-0.0618087	2.07511
H	-1.64435	-0.436722	1.5807
H	-1.89876	-0.176543	-1.15494
C	5.11427	-0.115802	-0.949448
C	6.4439	0.248585	-0.928482
N	6.92129	0.282573	0.33937
C	5.89174	-0.0594281	1.10205
N	4.77906	-0.309611	0.372015
H	4.40648	-0.246547	-1.78341
H	7.06731	0.487572	-1.80547
H	5.8977	-0.142218	2.20084
H	3.83995	-0.596553	0.742138
