18
  This energy is -1.9679 and Call times are: 10701
C	0.138355	1.12563	0.0146371
C	0.0360327	0.417324	-1.14649
C	-0.126379	-0.947741	-0.758752
C	-0.108968	-0.953102	0.605081
O	0.0518874	0.304628	1.09422
H	0.273127	2.20319	0.204244
H	0.0713796	0.816109	-2.17304
H	-0.241992	-1.81777	-1.42491
H	-0.200175	-1.77489	1.33418
C	3.57064	0.922734	0.0410359
C	4.80866	0.872792	-0.563895
N	5.37519	-0.349529	-0.417286
C	4.49197	-1.0552	0.275961
N	3.38698	-0.332541	0.57652
H	2.83196	1.7356	0.125542
H	5.30326	1.69683	-1.10351
H	4.6039	-2.10536	0.590398
H	2.54983	-0.665115	1.11489
