18
  This energy is -1.1045 and Call times are: 110634
C	0.157967	1.12286	0.0251775
C	-0.520697	0.458585	1.00422
C	-0.50836	-0.918005	0.623479
C	0.176755	-0.973424	-0.554621
O	0.591008	0.263853	-0.934821
H	0.397491	2.19132	-0.102379
H	-0.983566	0.894265	1.90424
H	-0.959762	-1.76186	1.1696
H	0.433444	-1.82035	-1.21194
C	5.38572	0.712257	-0.510318
C	5.16688	0.555218	0.841936
N	4.18485	-0.348781	1.07625
C	3.79594	-0.751029	-0.126064
N	4.48981	-0.14044	-1.11566
H	6.09203	1.34921	-1.06615
H	5.69999	1.078	1.6527
H	3.00736	-1.49065	-0.338985
H	4.36844	-0.288405	-2.14748
