18
  This energy is -0.8167 and Call times are: 188558
C	0.628989	-0.87321	0.358161
C	1.10876	0.06663	-0.506072
C	0.0377685	0.988167	-0.715534
C	-1.00192	0.530115	0.0391917
O	-0.658471	-0.60579	0.701593
H	1.09765	-1.76864	0.798413
H	2.11581	0.106917	-0.951397
H	0.049348	1.88502	-1.35555
H	-2.02343	0.916916	0.188
C	4.96442	-0.614749	-0.776669
C	5.35377	-1.02273	0.481545
N	6.07735	-0.0612532	1.10485
C	6.13666	0.939389	0.236626
N	5.48081	0.654449	-0.913271
H	4.37604	-1.1209	-1.55844
H	5.12555	-1.99361	0.950753
H	6.64733	1.90343	0.391823
H	5.38412	1.28099	-1.74954
