18
  This energy is -0.7187 and Call times are: 20630
C	0.437446	-0.592311	0.862676
C	-0.881228	-0.24821	0.80729
C	-1.04443	0.480164	-0.410476
C	0.188916	0.516863	-0.991748
O	1.10594	-0.133216	-0.227898
H	1.01527	-1.15497	1.6142
H	-1.66081	-0.483678	1.54952
H	-1.97571	0.921714	-0.800152
H	0.539652	0.967668	-1.93462
C	6.67533	-0.010658	-0.0597486
C	5.88407	0.970233	0.499621
N	4.56976	0.657474	0.39333
C	4.54576	-0.512993	-0.229611
N	5.79031	-0.957929	-0.524083
H	7.7691	-0.0986985	-0.157003
H	6.23797	1.89801	0.977992
H	3.64413	-1.08826	-0.494844
H	6.03453	-1.85381	-1.01297
