18
  This energy is -1.48 and Call times are: 155111
C	-0.975379	0.439146	-0.377079
C	-0.646004	0.420633	0.94638
C	0.636955	-0.202679	1.02132
C	0.978322	-0.51004	-0.262957
O	0.00519739	-0.125175	-1.13009
H	-1.86575	0.820236	-0.903631
H	-1.24627	0.807136	1.78566
H	1.22918	-0.395541	1.93026
H	1.87306	-0.996228	-0.685234
C	4.38653	-0.401975	1.08533
C	4.0445	0.833839	0.578453
N	4.44518	0.961508	-0.709827
C	5.03354	-0.190722	-1.00106
N	5.02383	-1.04623	0.0485186
H	4.22684	-0.853493	2.07738
H	3.51579	1.63564	1.11923
H	5.48836	-0.460691	-1.96775
H	5.42529	-2.0156	0.0686352
