18
  This energy is -0.6057 and Call times are: 13487
C	-1.01823	0.424324	0.263741
C	-0.867284	-0.661113	-0.548303
C	0.53994	-0.8876	-0.640717
C	1.1247	0.0794272	0.123012
O	0.188	0.889456	0.682878
H	-1.91831	0.955287	0.614708
H	-1.6667	-1.24383	-1.03355
H	1.04853	-1.68084	-1.21186
H	2.18263	0.295256	0.345393
C	5.13055	0.755436	-0.241784
C	5.73094	-0.123294	-1.11843
N	6.69818	-0.844629	-0.501472
C	6.69783	-0.415029	0.753147
N	5.77047	0.549745	0.960037
H	4.32022	1.48814	-0.383395
H	5.48353	-0.249731	-2.18504
H	7.3558	-0.772758	1.56144
H	5.576	1.04643	1.86377
