18
  This energy is -1.5589 and Call times are: 200110
C	-0.101378	-0.405669	1.0543
C	1.00811	0.267291	0.634153
C	0.76296	0.612218	-0.730047
C	-0.4747	0.11959	-1.02311
O	-1.01716	-0.505119	0.0550736
H	-0.357832	-0.857685	2.0265
H	1.90881	0.497688	1.22556
H	1.43579	1.16322	-1.40665
H	-1.07226	0.147505	-1.94907
C	4.35862	0.164343	-1.03198
C	5.33879	0.958857	-0.475962
N	5.73888	0.473266	0.724304
C	5.00969	-0.618343	0.912179
N	4.16223	-0.847437	-0.118793
H	3.80541	0.24466	-1.98122
H	5.76445	1.87377	-0.919349
H	5.05608	-1.28678	1.78698
H	3.48465	-1.64403	-0.205894
