18
  This energy is -0.7828 and Call times are: 88815
C	-1.07553	-0.345601	-0.100946
C	-0.144439	-0.561928	-1.0739
C	1.07035	0.00988723	-0.586633
C	0.77436	0.525164	0.641069
O	-0.53177	0.317048	0.953677
H	-2.1439	-0.610316	-0.0395828
H	-0.297693	-1.07291	-2.03801
H	2.04624	0.0304056	-1.09783
H	1.39625	1.05607	1.38042
C	7.15228	0.085606	0.223618
C	6.56107	-0.576323	-0.831587
N	5.21101	-0.470554	-0.779994
C	4.96562	0.254236	0.303098
N	6.10358	0.61401	0.94278
H	8.2098	0.213754	0.504299
H	7.08446	-1.12832	-1.62921
H	3.97109	0.550655	0.673618
H	6.17365	1.18642	1.81954
