18
  This energy is -0.7587 and Call times are: 33418
C	0.26573	0.959526	-0.54323
C	1.09677	0.384633	0.372868
C	0.423126	-0.789165	0.829501
C	-0.760109	-0.827943	0.152135
O	-0.872909	0.23233	-0.690544
H	0.367939	1.87367	-1.1508
H	2.08503	0.750448	0.694774
H	0.78523	-1.51439	1.57585
H	-1.59522	-1.54702	0.179923
C	6.55846	0.500407	0.630658
C	6.43096	-0.837208	0.321345
N	5.3208	-1.0631	-0.422315
C	4.76172	0.129843	-0.573772
N	5.47013	1.1054	0.0426932
H	7.32121	1.04638	1.2083
H	7.12012	-1.64334	0.621446
H	3.83326	0.345594	-1.12664
H	5.2351	2.12784	0.0679471
