18
  This energy is -0.8389 and Call times are: 199182
C	0.587651	-0.359806	0.900892
C	-0.28656	0.684951	0.968821
C	-0.821646	0.833225	-0.347163
C	-0.227184	-0.134012	-1.1031
O	0.636464	-0.871918	-0.35703
H	1.2271	-0.828993	1.66654
H	-0.530174	1.29046	1.85658
H	-1.56262	1.57655	-0.682605
H	-0.332254	-0.396891	-2.16851
C	4.50607	-0.412406	0.135427
C	4.8699	0.819018	-0.366937
N	6.21742	0.962157	-0.381269
C	6.68777	-0.176139	0.110335
N	5.69538	-1.03761	0.436864
H	3.51796	-0.872716	0.294446
H	4.18423	1.60676	-0.719304
H	7.75024	-0.431268	0.252827
H	5.81008	-1.99867	0.842391
