18
  This energy is -1.7431 and Call times are: 22951
C	0.162205	1.11115	0.159487
C	-0.492281	0.330889	1.0668
C	-0.494533	-0.988079	0.518678
C	0.158776	-0.897385	-0.675196
O	0.566747	0.377437	-0.91057
H	0.401693	2.18721	0.158556
H	-0.929604	0.651934	2.02585
H	-0.933949	-1.893	0.968251
H	0.395131	-1.65654	-1.43878
C	4.59	0.310137	-0.901555
C	3.94034	1.15589	-0.027614
N	3.23048	0.457457	0.891515
C	3.43898	-0.816746	0.588927
N	4.25207	-0.957996	-0.484629
H	5.24698	0.514143	-1.76197
H	3.97109	2.25755	-0.043807
H	3.02058	-1.68654	1.12056
H	4.56536	-1.86141	-0.917001
