18
  This energy is -0.7701 and Call times are: 193207
C	1.05393	0.251279	0.335387
C	0.625803	-1.03355	0.173272
C	-0.735057	-0.941669	-0.250679
C	-1.0184	0.391203	-0.310209
O	0.0627464	1.13441	0.0444562
H	2.02703	0.663581	0.648993
H	1.20973	-1.95371	0.335916
H	-1.41604	-1.77641	-0.482093
H	-1.93881	0.931356	-0.586488
C	5.98188	-1.14633	-0.194798
C	4.88374	-0.574047	0.411603
N	5.00569	0.774328	0.470963
C	6.17504	1.03754	-0.0964541
N	6.80216	-0.0874635	-0.514383
H	6.22942	-2.1971	-0.414208
H	4.00563	-1.10992	0.807347
H	6.62014	2.03644	-0.231789
H	7.73544	-0.142593	-0.991048
