18
  This energy is -1.3162 and Call times are: 76086
C	0.307964	0.561908	-0.935852
C	0.843257	0.833895	0.288835
C	0.213143	-0.0677429	1.19995
C	-0.651579	-0.811114	0.451595
O	-0.606711	-0.440016	-0.855036
H	0.491636	1.00446	-1.92866
H	1.60538	1.59327	0.526755
H	0.38958	-0.14643	2.28474
H	-1.34465	-1.6231	0.726509
C	5.54381	0.665497	-0.623656
C	5.67428	0.294838	0.697985
N	4.63204	-0.475146	1.09469
C	3.85794	-0.581758	0.0232304
N	4.36444	0.0884739	-1.03877
H	6.18537	1.2786	-1.27638
H	6.50177	0.5692	1.3724
H	2.90912	-1.13864	-0.038683
H	3.93967	0.155744	-1.996
