18
  This energy is -0.6299 and Call times are: 134430
C	0.706821	-0.738972	-0.490639
C	-0.523821	-1.10214	-0.0280339
C	-1.10436	0.0855421	0.512806
C	-0.177222	1.06964	0.332957
O	0.935094	0.583853	-0.278414
H	1.50325	-1.32014	-0.98378
H	-0.977299	-2.10571	-0.0640381
H	-2.09744	0.185912	0.979508
H	-0.188546	2.14102	0.59234
C	6.48109	0.841133	0.583033
C	7.02665	-0.131709	-0.22757
N	6.0645	-0.936731	-0.740133
C	4.92637	-0.465095	-0.249375
N	5.12448	0.606642	0.554193
H	6.94669	1.65651	1.15915
H	8.09728	-0.267163	-0.451756
H	3.9193	-0.866742	-0.446122
H	4.38546	1.15456	1.05906
