18
  This energy is -0.864 and Call times are: 44410
C	0.716481	0.632907	0.610316
C	0.50427	-0.688675	0.872541
C	-0.448617	-1.13119	-0.0950882
C	-0.734583	-0.0409581	-0.863198
O	-0.0319621	1.04518	-0.446506
H	1.36599	1.37953	1.09605
H	0.971842	-1.29145	1.66761
H	-0.866746	-2.14528	-0.199424
H	-1.41092	0.0899553	-1.72382
C	6.19774	0.7991	-0.509593
C	6.46513	-0.542354	-0.335951
N	5.4391	-1.16803	0.29039
C	4.53861	-0.218334	0.5045
N	4.94917	0.985661	0.0403527
H	6.78793	1.60721	-0.970227
H	7.38	-1.06995	-0.651388
H	3.56167	-0.349911	0.996946
H	4.41762	1.88913	0.0899677
