18
  This energy is -1.2162 and Call times are: 141434
C	-0.0462595	-0.360953	-1.07423
C	-1.16575	-0.0550595	-0.357611
C	-0.705332	0.354947	0.93081
C	0.654867	0.263408	0.887787
O	1.0746	-0.172231	-0.3292
H	0.0845467	-0.718498	-2.10879
H	-2.21091	-0.112391	-0.701769
H	-1.32254	0.678713	1.78423
H	1.4263	0.476347	1.64594
C	4.18361	-0.840301	-0.407159
C	4.48448	-0.577254	0.912473
N	5.34607	0.463325	1.01915
C	5.57882	0.844375	-0.229547
N	4.90104	0.0893817	-1.12631
H	3.5315	-1.598	-0.869945
H	4.09532	-1.11966	1.78951
H	6.23708	1.67035	-0.543671
H	4.91869	0.192564	-2.17049
