18
  This energy is -0.656 and Call times are: 128349
C	-0.632371	0.896389	-0.288086
C	0.339726	0.964676	0.666239
C	0.904494	-0.344976	0.743485
C	0.227663	-1.09796	-0.170456
O	-0.71458	-0.355906	-0.809633
H	-1.32526	1.65811	-0.681711
H	0.629968	1.84862	1.25658
H	1.71968	-0.678345	1.40562
H	0.320589	-2.15849	-0.456602
C	4.52783	0.0855216	-0.0615315
C	5.25913	-1.03197	0.281347
N	6.58918	-0.774181	0.249637
C	6.68266	0.498389	-0.111541
N	5.46721	1.06099	-0.31095
H	3.44164	0.250146	-0.142979
H	4.85087	-2.01961	0.551045
H	7.61653	1.06788	-0.244967
H	5.27674	2.05154	-0.600408
