18
  This energy is -1.1398 and Call times are: 14592
C	-0.00614083	-0.0401189	1.13347
C	-1.08893	-0.395698	0.384126
C	-0.698968	-0.212991	-0.977736
C	0.58769	0.238108	-0.940386
O	1.02682	0.349582	0.340921
H	0.153627	-0.0204727	2.22404
H	-2.06439	-0.751005	0.75335
H	-1.31197	-0.398474	-1.87435
H	1.29005	0.511972	-1.74471
C	5.77641	-0.122019	0.719153
C	5.98194	-0.76917	-0.480886
N	7.15354	-0.389547	-1.04637
C	7.67285	0.48977	-0.200351
N	6.88025	0.685363	0.879978
H	4.95031	-0.177057	1.44583
H	5.30586	-1.5032	-0.948812
H	8.63078	1.02036	-0.323083
H	7.07037	1.32935	1.68644
