18
  This energy is -1.4274 and Call times are: 49860
C	-0.686745	0.398446	0.809953
C	-0.607062	-0.929237	0.507821
C	0.349827	-1.03334	-0.547472
C	0.770416	0.239922	-0.797056
O	0.147735	1.12714	0.0227726
H	-1.29043	0.944045	1.55368
H	-1.16605	-1.75268	0.98065
H	0.680267	-1.95354	-1.05553
H	1.49814	0.640678	-1.52166
C	4.34756	-0.342342	1.125
C	4.07507	-1.13446	0.0298123
N	4.10207	-0.410665	-1.11557
C	4.39022	0.825772	-0.732402
N	4.54767	0.918687	0.6093
H	4.41111	-0.578882	2.19904
H	3.85947	-2.21525	0.0455768
H	4.49782	1.70112	-1.39302
H	4.77826	1.78608	1.1531
