18
  This energy is -0.749 and Call times are: 14495
C	0.125964	0.722863	0.864871
C	-1.04061	0.615936	0.166267
C	-0.810623	-0.383165	-0.828229
C	0.476187	-0.798577	-0.649554
O	1.0632	-0.133685	0.380178
H	0.412296	1.36182	1.71634
H	-1.96986	1.18367	0.334394
H	-1.52611	-0.74409	-1.58448
H	1.08252	-1.54977	-1.18183
C	6.53089	-0.0148787	-0.56758
C	6.03547	1.00128	0.221802
N	4.81647	0.682429	0.720691
C	4.55664	-0.526937	0.242624
N	5.55979	-0.990784	-0.539763
H	7.4743	-0.109449	-1.12845
H	6.53576	1.95879	0.440298
H	3.64682	-1.1184	0.433999
H	5.59172	-1.91731	-1.03149
