18
  This energy is -1.5201 and Call times are: 86249
C	0.00979173	1.10039	-0.274665
C	0.53329	0.635001	0.895691
C	0.33497	-0.779375	0.877643
C	-0.292211	-1.05343	-0.302149
O	-0.498658	0.0829166	-1.01846
H	-0.0615747	2.11918	-0.689661
H	1.01116	1.22819	1.69184
H	0.628505	-1.50084	1.65702
H	-0.639521	-2.00261	-0.742257
C	4.61023	-0.854906	-0.697093
C	4.67758	-0.80566	0.679201
N	4.10429	0.325819	1.15629
C	3.6829	0.976039	0.0800602
N	3.9643	0.305177	-1.06202
H	4.96443	-1.60826	-1.41858
H	5.12955	-1.56628	1.33649
H	3.16236	1.94722	0.0713594
H	3.73426	0.610574	-2.0393
