18
  This energy is -0.7581 and Call times are: 49168
C	-0.473463	0.04299	1.02975
C	0.232229	-1.0402	0.594928
C	0.662866	-0.720564	-0.728893
C	0.182315	0.529735	-0.986175
O	-0.51407	1.01124	0.0769385
H	-0.988865	0.24514	1.98303
H	0.429716	-1.97093	1.15066
H	1.26063	-1.35419	-1.40364
H	0.266101	1.17663	-1.87486
C	6.40649	-0.393076	0.865814
C	6.04315	-0.158072	-0.443344
N	7.09549	0.29136	-1.16936
C	8.10783	0.335004	-0.313861
N	7.74323	-0.0680272	0.926391
H	5.82773	-0.756497	1.72981
H	5.04053	-0.304756	-0.877035
H	9.13731	0.654297	-0.542881
H	8.36111	-0.122514	1.77286
