18
  This energy is -1.5918 and Call times are: 83412
C	0.201979	-0.145491	-1.10654
C	0.729896	0.89366	-0.398135
C	0.254383	0.736534	0.939518
C	-0.522136	-0.384763	0.930447
O	-0.565291	-0.936253	-0.310927
H	0.295483	-0.42922	-2.16768
H	1.38813	1.69086	-0.779308
H	0.470633	1.38769	1.80168
H	-1.09026	-0.887117	1.73052
C	4.10398	0.900477	-0.73199
C	4.6543	0.965103	0.530592
N	4.734	-0.265535	1.09245
C	4.23502	-1.09048	0.181897
N	3.84114	-0.435738	-0.93603
H	3.888	1.68464	-1.47494
H	4.99527	1.87765	1.04619
H	4.13472	-2.18323	0.28218
H	3.41645	-0.864334	-1.79463
