18
  This energy is -1.2644 and Call times are: 140181
C	0.644337	0.93272	-0.0355697
C	-0.618233	0.936398	0.480453
C	-1.09791	-0.402617	0.349822
C	-0.0861245	-1.10634	-0.234495
O	0.985616	-0.306561	-0.476843
H	1.39181	1.73558	-0.14487
H	-1.15766	1.79582	0.909993
H	-2.0832	-0.787798	0.657942
H	-0.00607402	-2.16659	-0.525555
C	5.14126	1.12782	-0.296497
C	6.3413	0.452979	-0.221342
N	6.1543	-0.836351	0.151711
C	4.84324	-0.960899	0.307396
N	4.1883	0.195739	0.0488643
H	4.90584	2.1706	-0.562432
H	7.33869	0.873307	-0.429613
H	4.30999	-1.87668	0.60942
H	3.15202	0.352589	0.10148
