18
  This energy is -1.107 and Call times are: 40343
C	-0.284187	-1.07599	-0.218821
C	0.896833	-0.738592	0.374246
C	0.888688	0.685842	0.479316
C	-0.296591	1.09315	-0.0588183
O	-1.02546	0.0302955	-0.490217
H	-0.70901	-2.05425	-0.497712
H	1.6938	-1.42403	0.704589
H	1.67808	1.32441	0.907321
H	-0.732749	2.09685	-0.191515
C	4.58451	0.913622	0.533531
C	5.23551	-0.13945	1.14047
N	5.7106	-1.01505	0.221709
C	5.35568	-0.507111	-0.950746
N	4.67446	0.655381	-0.816065
H	4.0804	1.79898	0.952522
H	5.37092	-0.283126	2.22485
H	5.569	-0.945535	-1.93893
H	4.28837	1.24721	-1.59191
