18
  This energy is -0.4844 and Call times are: 75191
C	0.190463	0.637364	0.918636
C	1.11685	0.487322	-0.0711501
C	0.517586	-0.373979	-1.04026
C	-0.722095	-0.674231	-0.557128
O	-0.938686	-0.0650952	0.638302
H	0.213306	1.20924	1.86081
H	2.12141	0.937958	-0.114477
H	0.965141	-0.723915	-1.98436
H	-1.53306	-1.30077	-0.963375
C	7.19206	-0.610104	0.7307
C	7.5851	0.369582	-0.156361
N	6.5248	0.862113	-0.841705
C	5.47796	0.190534	-0.381562
N	5.82824	-0.708884	0.568147
H	7.76717	-1.22352	1.44239
H	8.61474	0.729853	-0.314134
H	4.43238	0.317656	-0.705344
H	5.18369	-1.35783	1.08263
