18
  This energy is -1.7936 and Call times are: 69692
C	0.999002	-0.359346	0.399083
C	0.659934	0.961246	0.361085
C	-0.653493	1.01176	-0.19791
C	-1.0011	-0.282416	-0.452159
O	-0.00369938	-1.13314	-0.0937142
H	1.9112	-0.870186	0.748634
H	1.27321	1.81423	0.693361
H	-1.26104	1.91171	-0.385215
H	-1.9164	-0.722965	-0.880393
C	4.53548	-0.263914	-1.11601
C	5.46339	-0.894232	-0.31424
N	5.50916	-0.329695	0.916904
C	4.61306	0.647131	0.879048
N	3.99902	0.727519	-0.325147
H	4.22916	-0.444687	-2.15861
H	6.10066	-1.74623	-0.602051
H	4.36669	1.33373	1.70495
H	3.25587	1.41425	-0.603333
