18
  This energy is -0.6424 and Call times are: 57302
C	-0.385989	-1.01511	-0.32704
C	-1.0221	-0.260405	0.614314
C	-0.244594	0.929822	0.751994
C	0.798009	0.797373	-0.11738
O	0.727489	-0.384459	-0.784697
H	-0.621502	-2.00455	-0.752241
H	-1.94615	-0.516187	1.15728
H	-0.445949	1.78035	1.42293
H	1.64432	1.46402	-0.351015
C	6.73527	0.309983	0.0126228
C	6.13624	-0.603583	-0.828625
N	4.81163	-0.715183	-0.565067
C	4.58975	0.12595	0.435878
N	5.71828	0.76811	0.820115
H	7.7785	0.655006	0.0911824
H	6.63608	-1.18419	-1.62103
H	3.61983	0.31051	0.925173
H	5.8025	1.47945	1.58703
