18
  This energy is -1.1506 and Call times are: 174468
C	-0.944395	0.622854	-0.0810675
C	-0.375138	0.312078	1.11882
C	0.778942	-0.471832	0.812719
C	0.813049	-0.570891	-0.547207
O	-0.231912	0.09175	-1.10932
H	-1.84465	1.20674	-0.333806
H	-0.732113	0.60543	2.11913
H	1.49468	-0.907119	1.5285
H	1.51859	-1.07774	-1.22586
C	5.18882	1.17335	-0.0215661
C	4.29642	0.424453	0.715951
N	4.47472	-0.90131	0.49899
C	5.47393	-0.974606	-0.36982
N	5.93879	0.249564	-0.714649
H	5.33828	2.26197	-0.099643
H	3.52711	0.816991	1.40073
H	5.90469	-1.89931	-0.786492
H	6.7214	0.455707	-1.38269
