18
  This energy is -0.9283 and Call times are: 7839
C	1.12949	-0.0902359	0.0501384
C	0.325737	-0.379087	1.11359
C	-1.01126	-0.147991	0.667334
C	-0.906507	0.261679	-0.62942
O	0.393711	0.302711	-1.02282
H	2.22492	-0.123931	-0.0687838
H	0.642575	-0.72063	2.11212
H	-1.93716	-0.274731	1.25107
H	-1.67138	0.549532	-1.36926
C	4.86256	0.509123	-0.966711
C	4.91545	1.04881	0.300998
N	5.48518	0.185246	1.17631
C	5.78459	-0.886097	0.454374
N	5.42899	-0.739993	-0.844006
H	4.47485	0.912114	-1.91583
H	4.55273	2.04583	0.599732
H	6.26494	-1.80542	0.826331
H	5.55984	-1.4441	-1.61106
