18
  This energy is -1.1491 and Call times are: 156208
C	-0.826682	0.0419085	0.775398
C	-0.727927	-0.970733	-0.132996
C	0.422949	-0.674379	-0.925319
C	0.925882	0.493198	-0.431159
O	0.175155	0.94482	0.607811
H	-1.55382	0.232372	1.58178
H	-1.39827	-1.83926	-0.234899
H	0.822334	-1.26745	-1.76368
H	1.80008	1.09601	-0.727218
C	6.91656	-0.678669	0.961367
C	7.93142	-0.522466	0.0411401
N	7.57078	0.336713	-0.942866
C	6.3369	0.712092	-0.634263
N	5.8975	0.127372	0.505307
H	6.84966	-1.28612	1.87792
H	8.91738	-1.01432	0.0695885
H	5.70942	1.4129	-1.20817
H	4.95928	0.26233	0.955632
