18
  This energy is -1.2343 and Call times are: 25973
C	-0.12031	-1.03126	0.456534
C	0.576854	-0.0354248	1.07512
C	0.503996	1.09308	0.202601
C	-0.231259	0.687238	-0.872138
O	-0.620754	-0.607433	-0.733817
H	-0.330216	-2.07137	0.755485
H	1.09086	-0.0900551	2.04821
H	0.950279	2.08739	0.364699
H	-0.54254	1.21734	-1.7872
C	5.19127	-1.03432	-0.527904
C	3.98607	-0.553773	-0.0613189
N	4.13111	0.674799	0.49193
C	5.42138	0.955355	0.369033
N	6.10332	-0.0437816	-0.239478
H	5.45563	-1.97956	-1.02809
H	3.01447	-1.07153	-0.113969
H	5.91964	1.87811	0.707383
H	7.131	-0.0606545	-0.451215
