18
  This energy is -1.3047 and Call times are: 125788
C	0.442775	-1.02683	-0.189658
C	0.4008	-0.0605086	-1.15134
C	-0.219459	1.07203	-0.540809
C	-0.50176	0.697811	0.740065
O	-0.104147	-0.580937	0.971835
H	0.830569	-2.05862	-0.206427
H	0.769619	-0.137508	-2.18678
H	-0.427167	2.04772	-1.00877
H	-0.976996	1.24184	1.57279
C	4.98989	0.959452	0.341425
C	4.02008	0.286958	1.05442
N	3.55139	-0.777081	0.358238
C	4.22787	-0.764734	-0.782308
N	5.10755	0.263053	-0.84068
H	5.5848	1.85445	0.58351
H	3.65015	0.550457	2.05869
H	4.1185	-1.48484	-1.60918
H	5.75573	0.486795	-1.63508
