18
  This energy is -0.7012 and Call times are: 32085
C	-0.41177	-0.716715	0.776638
C	0.585635	0.170289	1.05732
C	0.825106	0.885977	-0.155349
C	-0.0471027	0.373142	-1.07002
O	-0.810217	-0.606634	-0.518018
H	-0.918501	-1.46929	1.40283
H	1.10103	0.306896	2.02158
H	1.56309	1.68781	-0.318253
H	-0.220634	0.61638	-2.13114
C	6.63881	-0.322563	0.857439
C	6.94994	-0.120963	-0.470604
N	5.85418	0.244927	-1.17908
C	4.86702	0.270219	-0.293924
N	5.28927	-0.0644111	0.948382
H	7.26148	-0.621493	1.71561
H	7.94544	-0.232964	-0.930265
H	3.8158	0.526991	-0.501824
H	4.70073	-0.117156	1.81562
