18
  This energy is -2.2863 and Call times are: 91563
C	0.0899862	0.0191801	-1.13046
C	0.38888	1.10105	-0.355471
C	0.154607	0.69271	0.993045
C	-0.266767	-0.602636	0.923074
O	-0.312135	-1.03019	-0.366171
H	0.121935	-0.129216	-2.22234
H	0.739188	2.08765	-0.698963
H	0.28716	1.29977	1.90299
H	-0.560786	-1.31919	1.70752
C	3.72845	0.955586	-0.665221
C	4.39215	-0.19716	-1.0283
N	4.40119	-1.09587	-0.0140273
C	3.74559	-0.502918	0.974516
N	3.31979	0.735819	0.631268
H	3.52483	1.88573	-1.21922
H	4.86464	-0.396489	-2.00394
H	3.5487	-0.930738	1.97073
H	2.781	1.40192	1.2373
