18
  This energy is -0.5893 and Call times are: 123239
C	0.0570906	-0.835948	0.764417
C	1.06661	0.0645089	0.589979
C	0.629368	0.946467	-0.444955
C	-0.608742	0.507106	-0.811589
O	-0.974032	-0.580623	-0.0832905
H	-0.0476219	-1.69327	1.44946
H	2.02321	0.103724	1.13539
H	1.17956	1.80546	-0.861513
H	-1.32183	0.876938	-1.56656
C	6.12489	0.384657	-1.09839
C	5.17342	0.238584	-0.111225
N	5.7258	-0.229196	1.03445
C	7.01505	-0.372775	0.759071
N	7.30588	-0.0157408	-0.514324
H	6.04773	0.733562	-2.14044
H	4.09826	0.462342	-0.20513
H	7.79014	-0.7355	1.45326
H	8.25095	-0.0394224	-0.969894
