18
  This energy is -0.9047 and Call times are: 38537
C	0.873332	-0.660028	0.29674
C	-0.0820381	-1.06664	-0.587742
C	-0.998284	0.0231139	-0.701985
C	-0.521935	0.999456	0.122771
O	0.62045	0.599317	0.740715
H	1.77123	-1.16657	0.687173
H	-0.136124	-2.03666	-1.10758
H	-1.90401	0.0660099	-1.32801
H	-0.898901	2.00919	0.354247
C	4.51624	0.504137	-0.591535
C	4.65201	-0.83411	-0.288544
N	5.79338	-1.0648	0.404693
C	6.36351	0.125808	0.531285
N	5.63222	1.10448	-0.0526683
H	3.73066	1.05343	-1.13438
H	3.94686	-1.63732	-0.557726
H	7.31662	0.337571	1.04214
H	5.87004	2.12597	-0.0881646
