18
  This energy is -1.3368 and Call times are: 110955
C	-0.505611	-0.999448	0.178501
C	0.807608	-0.781776	0.475902
C	1.0705	0.575023	0.115205
C	-0.105282	1.0667	-0.370771
O	-1.07863	0.118743	-0.339484
H	-1.14132	-1.89353	0.286921
H	1.51974	-1.50419	0.906119
H	2.02698	1.11374	0.210158
H	-0.375202	2.06047	-0.764224
C	4.63393	0.394763	-1.04654
C	4.31823	-0.813036	-0.461134
N	4.91503	-0.940363	0.748879
C	5.59837	0.18417	0.913505
N	5.46109	1.02172	-0.141603
H	4.33836	0.837711	-2.01089
H	3.67053	-1.59486	-0.890179
H	6.21603	0.445796	1.78774
H	5.90096	1.96834	-0.249702
