18
  This energy is -1.63 and Call times are: 103295
C	-0.167303	0.994187	-0.519618
C	0.569033	-0.00798555	-1.07983
C	0.549784	-1.08109	-0.137384
C	-0.196616	-0.639943	0.915541
O	-0.642559	0.625476	0.699068
H	-0.423658	2.00332	-0.881806
H	1.07499	0.00693991	-2.05854
H	1.03785	-2.0636	-0.240105
H	-0.479755	-1.12392	1.86467
C	5.00931	-0.81081	-0.269622
C	4.33324	-0.681809	0.92513
N	3.47199	0.363868	0.888777
C	3.61323	0.881607	-0.323915
N	4.52864	0.208698	-1.06067
H	5.77299	-1.53191	-0.601826
H	4.45147	-1.32451	1.81271
H	3.07101	1.75338	-0.724202
H	4.81724	0.422812	-2.04663
