18
  This energy is -1.1258 and Call times are: 212152
C	-0.844551	-0.0477273	0.755551
C	-0.344432	-1.16165	0.147739
C	0.690788	-0.701086	-0.721927
C	0.731891	0.653621	-0.568784
O	-0.198919	1.06981	0.329767
H	-1.64826	0.0809655	1.49902
H	-0.671687	-2.20317	0.296844
H	1.32576	-1.31452	-1.38117
H	1.36859	1.42314	-1.03537
C	4.20269	0.150642	0.397894
C	4.63015	0.251657	-0.909095
N	5.961	0.0157045	-1.00755
C	6.35765	-0.230752	0.233638
N	5.33435	-0.161393	1.11774
H	3.20651	0.274589	0.851544
H	4.00213	0.490564	-1.7828
H	7.38594	-0.46761	0.551032
H	5.39203	-0.315882	2.15411
