18
  This energy is -0.7495 and Call times are: 11325
C	-0.826112	-0.348286	-0.69472
C	-0.683522	-0.834124	0.571773
C	0.451107	-0.163587	1.12233
C	0.90171	0.672813	0.143677
O	0.13348	0.573005	-0.972958
H	-1.55944	-0.574231	-1.4862
H	-1.31408	-1.58896	1.06847
H	0.875177	-0.295169	2.13077
H	1.74711	1.37985	0.118252
C	6.63316	0.50713	0.24597
C	6.19212	-0.725133	0.679746
N	4.95194	-0.99518	0.204838
C	4.62484	0.0655198	-0.520798
N	5.6055	0.999261	-0.527276
H	7.57419	1.05054	0.426783
H	6.74656	-1.42418	1.32688
H	3.67977	0.210275	-1.06863
H	5.58658	1.92225	-1.02626
