18
  This energy is -0.5684 and Call times are: 164606
C	-0.587119	0.40625	0.881279
C	0.719512	0.0291359	0.985567
C	1.10162	-0.420766	-0.315087
C	-0.00524184	-0.278864	-1.09937
O	-1.04591	0.224921	-0.38507
H	-1.29203	0.81367	1.62449
H	1.35092	0.0642529	1.88789
H	2.0882	-0.80383	-0.621714
H	-0.178486	-0.497439	-2.16589
C	6.97767	1.02108	0.0937471
C	7.5143	-0.206294	-0.232935
N	6.55972	-1.16806	-0.249882
C	5.43517	-0.539732	0.0650891
N	5.63466	0.781954	0.28174
H	7.44099	2.01462	0.202135
H	8.57316	-0.415097	-0.45671
H	4.43744	-0.999499	0.151101
H	4.90524	1.48969	0.543121
