18
  This energy is -0.953 and Call times are: 117562
C	-0.0503849	-0.265686	1.10149
C	-0.623105	-1.04071	0.136235
C	-0.34924	-0.38684	-1.10375
C	0.36666	0.730025	-0.786781
O	0.558437	0.819867	0.555666
H	-0.00648045	-0.376399	2.19742
H	-1.18233	-1.97874	0.282718
H	-0.653904	-0.717112	-2.10983
H	0.791622	1.5291	-1.41617
C	4.26494	0.536742	-0.160148
C	5.05408	0.581212	0.969638
N	6.18075	-0.154311	0.807955
C	6.0909	-0.653182	-0.417475
N	4.95377	-0.265564	-1.0422
H	3.2943	1.00368	-0.391176
H	4.83068	1.13084	1.89854
H	6.82961	-1.3081	-0.906978
H	4.65397	-0.526493	-2.01343
