18
  This energy is -0.9444 and Call times are: 74198
C	0.740922	0.743939	0.42894
C	1.01504	-0.588933	0.335759
C	-0.144092	-1.18672	-0.246632
C	-1.02422	-0.166372	-0.45793
O	-0.500204	1.01979	-0.0511877
H	1.33735	1.58793	0.812621
H	1.94065	-1.09991	0.646017
H	-0.295895	-2.25333	-0.477702
H	-2.04061	-0.15414	-0.884588
C	6.20024	-0.625313	-0.594722
C	5.77336	0.654877	-0.877622
N	4.8412	1.06763	0.0152541
C	4.69037	0.0473799	0.848899
N	5.48792	-0.997415	0.523457
H	6.93597	-1.27617	-1.09335
H	6.12127	1.28809	-1.70999
H	4.00945	0.0122436	1.71455
H	5.55153	-1.91593	1.02699
