18
  This energy is -2.5342 and Call times are: 187846
C	0.0603094	1.06653	-0.381143
C	-0.0168049	0.769028	0.947735
C	-0.0761569	-0.655885	1.0266
C	-0.0300718	-1.10334	-0.26105
O	0.0533901	-0.0649807	-1.1339
H	0.124014	2.03057	-0.912022
H	-0.0305183	1.48151	1.78814
H	-0.145038	-1.26785	1.9403
H	-0.0489498	-2.12193	-0.682198
C	3.28989	0.878833	0.666749
C	4.15987	0.984273	-0.397748
N	4.42045	-0.230913	-0.938059
C	3.7148	-1.08696	-0.211518
N	3.01605	-0.46683	0.768669
H	2.86059	1.64075	1.33662
H	4.60421	1.9154	-0.785591
H	3.67356	-2.17884	-0.354126
H	2.38577	-0.924009	1.47223
