18
  This energy is -0.9696 and Call times are: 175366
C	0.045416	0.401211	1.05989
C	0.429037	1.14257	-0.0188124
C	0.228863	0.30618	-1.15921
C	-0.259411	-0.872447	-0.676715
O	-0.377845	-0.832044	0.67656
H	0.0260574	0.633793	2.13729
H	0.814325	2.17485	-0.0121255
H	0.42809	0.561044	-2.21251
H	-0.557293	-1.80362	-1.18607
C	5.75751	-0.945624	0.242013
C	6.1036	0.374759	0.436827
N	5.10535	1.2042	0.0469121
C	4.14362	0.401429	-0.38814
N	4.48858	-0.904403	-0.291197
H	6.30611	-1.88048	0.438528
H	7.05572	0.743779	0.851742
H	3.16662	0.717141	-0.788153
H	3.9013	-1.72844	-0.569245
