18
  This energy is -0.8522 and Call times are: 96613
C	1.02702	0.259378	-0.405407
C	-0.116614	0.805342	-0.909787
C	-1.18701	0.241154	-0.150801
C	-0.602989	-0.599772	0.750385
O	0.748696	-0.601023	0.609117
H	2.086	0.399573	-0.677726
H	-0.198255	1.53243	-1.73367
H	-2.26358	0.443831	-0.269207
H	-1.03336	-1.24459	1.53412
C	5.43787	0.291776	-1.08894
C	4.82686	1.11214	-0.164383
N	4.57693	0.446823	0.989479
C	5.03116	-0.781614	0.781532
N	5.55975	-0.925491	-0.456808
H	5.78307	0.481725	-2.11768
H	4.56189	2.17217	-0.309221
H	5.00178	-1.6147	1.50218
H	5.98197	-1.79807	-0.858792
