18
  This energy is -1.5275 and Call times are: 166216
C	-0.113395	-0.882165	0.703795
C	-0.850114	0.257949	0.837052
C	-0.428149	1.12183	-0.219249
C	0.529177	0.433362	-0.904748
O	0.734132	-0.792435	-0.354817
H	-0.0987659	-1.81583	1.28971
H	-1.61406	0.469399	1.60241
H	-0.799881	2.13625	-0.435715
H	1.13093	0.701699	-1.78857
C	5.14039	-0.875108	-0.709516
C	5.94519	-0.117609	0.114889
N	5.21978	0.804836	0.79268
C	3.96972	0.620297	0.390288
N	3.86968	-0.381325	-0.515435
H	5.3742	-1.70299	-1.39761
H	7.03626	-0.220147	0.232771
H	3.08906	1.19075	0.726817
H	2.99145	-0.717674	-0.981098
