18
  This energy is -2.2108 and Call times are: 142106
C	-0.159298	-0.682348	-0.891867
C	0.262771	0.607769	-1.02541
C	0.342665	1.13227	0.30073
C	-0.0376332	0.116365	1.12758
O	-0.347713	-0.999337	0.416196
H	-0.360851	-1.46677	-1.63974
H	0.49459	1.13698	-1.96364
H	0.648746	2.149	0.595125
H	-0.128022	0.0617347	2.2249
C	3.2902	-0.61137	-0.866845
C	3.43536	-1.00273	0.447275
N	4.07148	-0.0513332	1.17302
C	4.32	0.926523	0.312412
N	3.86838	0.636746	-0.930833
H	2.83166	-1.11589	-1.73215
H	3.09249	-1.95452	0.884737
H	4.82976	1.87665	0.539665
H	3.94423	1.24665	-1.78143
