18
  This energy is -0.6114 and Call times are: 133634
C	-1.12392	-0.146336	-0.0423999
C	-0.398228	-0.386	1.08734
C	0.95826	-0.0917589	0.750471
C	0.941754	0.301737	-0.555386
O	-0.321638	0.274387	-1.05549
H	-2.20265	-0.235852	-0.251137
H	-0.779869	-0.734982	2.0603
H	1.83746	-0.167246	1.41032
H	1.75044	0.621629	-1.23284
C	5.19387	0.260006	-0.306533
C	5.99393	0.956546	0.574303
N	7.21238	0.375176	0.692184
C	7.16838	-0.678025	-0.112462
N	5.97244	-0.790872	-0.737426
H	4.16006	0.432039	-0.645906
H	5.71382	1.86817	1.12687
H	7.98374	-1.39973	-0.281449
H	5.69177	-1.53678	-1.42014
