18
  This energy is -1.804 and Call times are: 72828
C	-0.717908	-0.0291673	-0.877587
C	-0.232543	-1.16188	-0.29299
C	0.626237	-0.721323	0.759874
C	0.58985	0.641719	0.725723
O	-0.226107	1.08156	-0.26814
H	-1.41028	0.118378	-1.72263
H	-0.456768	-2.2032	-0.574903
H	1.20024	-1.35315	1.45659
H	1.09238	1.40226	1.34563
C	3.95512	0.643436	-0.745127
C	4.96787	-0.233371	-1.07177
N	5.49607	-0.804962	0.037643
C	4.8136	-0.284733	1.04869
N	3.87306	0.594169	0.628564
H	3.30857	1.27781	-1.37209
H	5.32689	-0.463787	-2.08807
H	4.96161	-0.512515	2.1166
H	3.20803	1.13503	1.23393
