18
  This energy is -1.6042 and Call times are: 79739
C	-0.403021	-0.245877	1.03127
C	0.902089	-0.447297	0.689963
C	1.0207	-0.0237545	-0.668957
C	-0.222405	0.399096	-1.0381
O	-1.10429	0.270534	-0.0120645
H	-0.949121	-0.426965	1.97161
H	1.70112	-0.853391	1.33085
H	1.92997	-0.0361695	-1.29118
H	-0.603475	0.807326	-1.98857
C	5.21931	-0.121457	-1.10699
C	6.52984	-0.0332806	-0.687586
N	6.60401	0.1004	0.658942
C	5.34429	0.0951759	1.07332
N	4.47168	-0.0362873	0.0462569
H	4.78046	-0.234998	-2.11101
H	7.42318	-0.0637255	-1.33246
H	5.00464	0.184509	2.11777
H	3.425	-0.067406	0.115306
