18
  This energy is -0.7754 and Call times are: 132635
C	-0.501243	0.256835	0.984476
C	-1.14397	-0.425664	-0.00621874
C	-0.198832	-0.553774	-1.06943
C	0.938016	0.0617481	-0.634597
O	0.771196	0.56251	0.617768
H	-0.835024	0.582103	1.9835
H	-2.17972	-0.801218	0.0100729
H	-0.356092	-1.0484	-2.04139
H	1.9193	0.208766	-1.11494
C	6.70128	0.316331	0.268723
C	5.97669	0.701536	-0.839306
N	4.73959	0.148349	-0.830664
C	4.69688	-0.577279	0.278509
N	5.85552	-0.508717	0.975955
H	7.72478	0.562717	0.593181
H	6.32437	1.3687	-1.64482
H	3.84197	-1.17837	0.627885
H	6.06891	-0.991982	1.8827
