18
  This energy is -1.2003 and Call times are: 53036
C	-0.713498	-0.350611	0.808946
C	-0.558935	-1.0204	-0.36913
C	0.409966	-0.281778	-1.11464
C	0.761953	0.774173	-0.326319
O	0.0855561	0.747868	0.852157
H	-1.35165	-0.550517	1.68533
H	-1.07541	-1.94214	-0.681788
H	0.794082	-0.516968	-2.12024
H	1.47193	1.60199	-0.487232
C	3.93935	-0.376579	0.343941
C	4.69438	0.617602	0.929325
N	5.86678	0.791742	0.272317
C	5.83918	-0.0910507	-0.716894
N	4.69782	-0.819664	-0.716525
H	2.94901	-0.786449	0.598469
H	4.41418	1.21236	1.81397
H	6.62829	-0.245961	-1.47024
H	4.43982	-1.57768	-1.39484
