18
  This energy is -1.4202 and Call times are: 63974
C	-0.00576878	-1.05715	-0.410847
C	-1.03288	-0.557663	0.334763
C	-0.663051	0.782696	0.661544
C	0.557404	0.983956	0.0867774
O	0.974004	-0.12924	-0.572199
H	0.145832	-2.0439	-0.878398
H	-1.95813	-1.08063	0.62548
H	-1.24455	1.50559	1.256
H	1.22358	1.86219	0.0739085
C	4.07459	-0.599313	-0.865945
C	4.07608	0.768046	-0.688544
N	4.78106	1.11682	0.415025
C	5.21527	-0.0298047	0.920327
N	4.81579	-1.09369	0.184011
H	3.6139	-1.23437	-1.63925
H	3.5811	1.50917	-1.33706
H	5.82939	-0.147605	1.82764
H	5.02989	-2.10286	0.376315
