18
  This energy is -1.6381 and Call times are: 42627
C	-0.64476	0.243246	-0.900842
C	0.504527	0.922146	-0.620473
C	1.02469	0.3343	0.572835
C	0.14735	-0.651931	0.916337
O	-0.87826	-0.721602	0.0273592
H	-1.37533	0.349281	-1.71954
H	0.942102	1.75349	-1.19622
H	1.94575	0.619249	1.10626
H	0.140532	-1.36383	1.75801
C	4.72849	-0.756457	-0.821491
C	5.87218	-0.859551	-0.0582731
N	5.98966	0.190535	0.790272
C	4.92291	0.942215	0.554365
N	4.13156	0.413928	-0.409105
H	4.31108	-1.41129	-1.60284
H	6.61467	-1.67281	-0.104686
H	4.67248	1.88944	1.05863
H	3.23425	0.818767	-0.772691
