18
  This energy is -0.7995 and Call times are: 62735
C	-0.428544	-1.04814	0.0644092
C	-1.15043	0.00837903	-0.407842
C	-0.281694	1.13973	-0.333981
C	0.894371	0.674695	0.176884
O	0.822495	-0.659384	0.426044
H	-0.687638	-2.11204	0.191878
H	-2.19036	-0.00739173	-0.771706
H	-0.51414	2.17555	-0.629192
H	1.84403	1.18497	0.407124
C	5.51465	0.0544048	1.14049
C	4.72431	-0.411151	0.11104
N	5.37098	-0.328966	-1.07706
C	6.55799	0.185618	-0.785778
N	6.69338	0.434253	0.538398
H	5.32793	0.139448	2.22282
H	3.69906	-0.804873	0.204291
H	7.36556	0.400893	-1.50391
H	7.53577	0.839225	1.01551
