18
  This energy is -1.2516 and Call times are: 661
C	0.895015	-0.695422	0.0416811
C	0.887653	0.523112	0.654457
C	-0.393398	1.09156	0.378974
C	-1.05578	0.170217	-0.377826
O	-0.28386	-0.927338	-0.59352
H	1.66708	-1.48019	-0.015826
H	1.70258	0.976208	1.24156
H	-0.7692	2.07303	0.710022
H	-2.06617	0.176388	-0.818641
C	5.46883	1.16886	-0.118865
C	6.28906	0.227822	-0.704384
N	5.92314	-1.02785	-0.349546
C	4.87987	-0.866408	0.453053
N	4.56683	0.439927	0.623592
H	5.46337	2.26896	-0.176083
H	7.13832	0.43241	-1.37651
H	4.30783	-1.67072	0.943027
H	3.78581	0.824258	1.20972
