18
  This energy is -1.7301 and Call times are: 142138
C	0.761884	0.686969	0.483743
C	0.0938035	-0.272598	1.18608
C	-0.763731	-0.920081	0.245058
C	-0.543977	-0.299025	-0.949249
O	0.384753	0.684979	-0.821929
H	1.51999	1.42498	0.793363
H	0.19474	-0.501502	2.25916
H	-1.45987	-1.75082	0.443472
H	-0.979044	-0.461923	-1.94896
C	3.94932	-0.582995	0.694035
C	5.25422	-0.246022	0.985291
N	5.82707	0.424417	-0.0437206
C	4.88115	0.503067	-0.969826
N	3.73018	-0.0895385	-0.57272
H	3.18658	-1.12108	1.27905
H	5.79261	-0.474645	1.91948
H	4.97795	0.983566	-1.95673
H	2.84041	-0.159725	-1.12465
