18
  This energy is -1.0643 and Call times are: 167226
C	-0.198385	0.860768	0.711424
C	0.846265	0.863897	-0.165543
C	0.763065	-0.371729	-0.877176
C	-0.325083	-1.02086	-0.372257
O	-0.92427	-0.282662	0.598854
H	-0.528513	1.60173	1.45791
H	1.59984	1.65679	-0.298017
H	1.43931	-0.727348	-1.67111
H	-0.770976	-1.99914	-0.61594
C	6.34455	-0.52121	-0.149475
C	5.1127	-1.13796	-0.0919311
N	4.12091	-0.23247	0.0895842
C	4.73514	0.941554	0.144439
N	6.07664	0.820595	0.00535074
H	7.35903	-0.928614	-0.285119
H	4.9218	-2.22007	-0.178135
H	4.25058	1.9212	0.284923
H	6.77886	1.60039	0.0138364
