18
  This energy is -1.7784 and Call times are: 194104
C	-0.720252	0.597038	-0.641236
C	-0.54792	0.845768	0.68873
C	0.424413	-0.0980683	1.14024
C	0.760425	-0.840243	0.0463254
O	0.0709323	-0.429418	-1.05041
H	-1.36693	1.07339	-1.39632
H	-1.05467	1.61656	1.29137
H	0.821436	-0.204565	2.16255
H	1.46665	-1.67714	-0.0805259
C	4.9018	-0.322602	-1.11433
C	6.12831	-0.148102	-0.50905
N	5.98547	0.226877	0.785361
C	4.67533	0.284783	0.982346
N	3.97865	-0.0378075	-0.133072
H	4.62965	-0.61939	-2.13971
H	7.11373	-0.286051	-0.98314
H	4.17241	0.557837	1.92402
H	2.93425	-0.0656646	-0.231612
