18
  This energy is -1.3563 and Call times are: 171106
C	-0.691832	-0.760859	-0.478395
C	-0.451686	0.460391	-1.0363
C	0.456015	1.12173	-0.153787
C	0.690424	0.24624	0.865494
O	-0.0024858	-0.908646	0.683488
H	-1.32437	-1.60241	-0.805427
H	-0.871616	0.855857	-1.9751
H	0.879788	2.13191	-0.272311
H	1.32087	0.324885	1.76639
C	3.8813	-0.700076	0.715683
C	4.63869	0.393265	1.07916
N	5.21688	0.968707	-0.00299971
C	4.8197	0.235143	-1.0339
N	4.01276	-0.783187	-0.652527
H	3.2782	-1.40147	1.31388
H	4.7783	0.777199	2.10286
H	5.09008	0.399478	-2.08942
H	3.57137	-1.49955	-1.27962
