18
  This energy is -0.9876 and Call times are: 80316
C	-0.196057	0.542648	0.976471
C	-0.26385	1.16866	-0.233438
C	0.0412014	0.170028	-1.20801
C	0.268478	-0.978085	-0.507611
O	0.127872	-0.768838	0.82785
H	-0.354601	0.914641	2.00201
H	-0.504528	2.22746	-0.420839
H	0.0840673	0.300599	-2.30126
H	0.534384	-1.9956	-0.838086
C	5.08945	0.44175	-1.05175
C	3.81998	0.15877	-0.594006
N	3.85463	-0.34002	0.665566
C	5.14069	-0.366375	0.988003
N	5.92577	0.0949697	-0.0141987
H	5.44503	0.851687	-2.01042
H	2.8797	0.305569	-1.15003
H	5.56254	-0.713895	1.94482
H	6.97217	0.173527	-0.0029914
