18
  This energy is -1.0704 and Call times are: 6433
C	1.03998	-0.448183	-0.0629716
C	0.644758	0.59368	-0.849541
C	-0.707679	0.869724	-0.482347
C	-1.01952	-0.0278194	0.496196
O	0.0361369	-0.840461	0.76493
H	1.99605	-0.993056	0.00268972
H	1.24535	1.11547	-1.61185
H	-1.36417	1.6481	-0.903355
H	-1.94524	-0.188603	1.07277
C	4.56228	-0.048129	-1.04577
C	4.84736	-1.10887	-0.212279
N	5.47431	-0.690551	0.913975
C	5.57778	0.624701	0.779695
N	5.04265	1.06057	-0.385311
H	4.06804	-0.00521397	-2.02935
H	4.61189	-2.16853	-0.4034
H	6.03638	1.31663	1.50437
H	5.00152	2.05385	-0.721415
