18
  This energy is -0.8408 and Call times are: 17806
C	-0.00818266	0.178527	-1.12003
C	-0.902689	-0.647678	-0.505522
C	-0.576078	-0.612892	0.884526
C	0.489183	0.2315	0.996749
O	0.849285	0.723971	-0.217669
H	0.121126	0.45825	-2.17846
H	-1.71139	-1.22383	-0.983179
H	-1.08119	-1.15671	1.69891
H	1.07294	0.559626	1.87243
C	4.76767	-0.926382	-0.356457
C	4.40978	0.00180647	0.598283
N	5.37816	0.936183	0.758556
C	6.33317	0.588976	-0.0935151
N	6.01258	-0.527584	-0.789289
H	4.24208	-1.81291	-0.745523
H	3.47018	0.014024	1.17435
H	7.28778	1.11717	-0.248347
H	6.60036	-0.999563	-1.51936
