18
  This energy is -1.8453 and Call times are: 25173
C	-0.629215	0.839377	0.431203
C	-0.166457	-0.19246	1.19379
C	0.573076	-1.03309	0.306916
C	0.496953	-0.440742	-0.919339
O	-0.233529	0.703857	-0.861886
H	-1.24174	1.71969	0.686382
H	-0.329522	-0.346202	2.27262
H	1.0974	-1.96819	0.561398
H	0.913411	-0.730087	-1.89816
C	3.97617	-0.213551	0.812895
C	5.2491	0.269073	1.03169
N	5.93082	0.394885	-0.132754
C	5.08404	-0.00815526	-1.07038
N	3.89179	-0.385194	-0.550779
H	3.15189	-0.439468	1.50791
H	5.68782	0.528756	2.0089
H	5.28562	-0.0473734	-2.15299
H	3.06136	-0.740566	-1.08496
