18
  This energy is -1.2066 and Call times are: 74678
C	-0.145962	0.995733	0.523078
C	0.825344	0.112189	0.892249
C	0.692776	-1.00489	0.0120914
C	-0.347838	-0.705364	-0.817234
O	-0.871886	0.512696	-0.519381
H	-0.419754	1.98812	0.917368
H	1.56134	0.234785	1.70303
H	1.30555	-1.92061	0.00477453
H	-0.806085	-1.26729	-1.6476
C	4.78792	0.544192	0.995769
C	5.6352	-0.536759	0.874035
N	5.77171	-0.907023	-0.422414
C	5.01202	-0.0589986	-1.10237
N	4.39779	0.835487	-0.292305
H	4.44638	1.10795	1.87842
H	6.15044	-1.05612	1.69843
H	4.86963	-0.0482902	-2.19501
H	3.74816	1.60441	-0.58894
