18
  This energy is -1.1121 and Call times are: 107064
C	0.274697	-0.907407	-0.622539
C	1.07627	-0.436498	0.375513
C	0.400131	0.699154	0.917043
C	-0.754926	0.821973	0.202108
O	-0.847924	-0.150849	-0.74234
H	0.389124	-1.76081	-1.31092
H	2.04635	-0.847609	0.698026
H	0.741756	1.34362	1.7429
H	-1.58127	1.54872	0.267214
C	4.7943	-0.556152	1.0166
C	5.22518	-1.12286	-0.164219
N	5.3577	-0.187137	-1.1355
C	5.01036	0.955716	-0.55942
N	4.66233	0.785945	0.738132
H	4.57942	-0.998202	2.00248
H	5.4428	-2.19014	-0.332744
H	4.99296	1.94627	-1.04184
H	4.35123	1.53414	1.40498
