18
  This energy is -0.7973 and Call times are: 142866
C	-0.558724	0.963705	-0.213309
C	-1.17074	-0.133014	0.318683
C	-0.153976	-1.12912	0.437348
C	0.989616	-0.553171	-0.0326054
O	0.760812	0.724867	-0.434203
H	-0.946699	1.961	-0.478144
H	-2.23176	-0.230751	0.599382
H	-0.269913	-2.15273	0.828345
H	2.01637	-0.94186	-0.13233
C	5.87794	0.523014	1.017
C	4.69216	0.640175	0.323228
N	4.71435	-0.101153	-0.81099
C	5.90935	-0.676027	-0.820816
N	6.64843	-0.331203	0.260134
H	6.21672	0.972083	1.96416
H	3.82101	1.24633	0.620755
H	6.29453	-1.35843	-1.59554
H	7.62276	-0.65322	0.479807
