18
  This energy is -1.3314 and Call times are: 51768
C	0.541748	-0.888383	-0.451316
C	0.173699	-0.847178	0.861398
C	-0.473726	0.412449	1.04659
C	-0.444158	1.02979	-0.169298
O	0.172311	0.249673	-1.0958
H	1.0645	-1.65989	-1.04017
H	0.341309	-1.6257	1.62291
H	-0.907894	0.804738	1.98024
H	-0.822235	2.01092	-0.500476
C	5.13057	0.937535	-0.329401
C	3.90636	0.945028	0.304956
N	3.46789	-0.316318	0.535729
C	4.41647	-1.10332	0.046398
N	5.44032	-0.395009	-0.486155
H	5.78154	1.75877	-0.669046
H	3.33164	1.83797	0.600259
H	4.41191	-2.20522	0.0518685
H	6.30529	-0.786366	-0.933277
