18
  This energy is -0.7492 and Call times are: 192523
C	0.026618	-1.1184	-0.186723
C	1.11258	-0.318156	-0.388361
C	0.692137	1.00418	-0.0495819
C	-0.613641	0.89526	0.329173
O	-1.03649	-0.393997	0.25152
H	-0.115996	-2.20375	-0.316824
H	2.10969	-0.627956	-0.740355
H	1.29844	1.92348	-0.0866826
H	-1.34126	1.64981	0.670451
C	6.99621	-0.0651476	0.423299
C	5.92137	-0.849217	0.785401
N	4.80787	-0.500301	0.0962889
C	5.19046	0.496436	-0.690327
N	6.50123	0.796175	-0.53028
H	8.04336	-0.0593482	0.765306
H	5.9294	-1.66043	1.53154
H	4.55135	1.0425	-1.40278
H	7.03815	1.54251	-1.03621
