18
  This energy is -0.7026 and Call times are: 63544
C	-1.01941	0.189114	-0.45983
C	0.0599589	0.979337	-0.726079
C	1.14206	0.429941	0.0271379
C	0.628426	-0.647511	0.687175
O	-0.690343	-0.809376	0.401416
H	-2.06204	0.231552	-0.815329
H	0.0910248	1.86071	-1.38662
H	2.17893	0.800651	0.0667048
H	1.09144	-1.3695	1.3797
C	6.25595	-0.887252	0.624489
C	6.45138	-0.633058	-0.716532
N	5.774	0.473514	-1.10789
C	5.16068	0.90417	-0.0138247
N	5.41974	0.117481	1.05744
H	6.63995	-1.6854	1.2795
H	7.06902	-1.22829	-1.40869
H	4.50987	1.79041	0.0587259
H	5.05339	0.248044	2.03211
