18
  This energy is -0.6259 and Call times are: 72252
C	0.646715	0.909064	-0.20436
C	-0.382365	0.931025	0.690562
C	-0.947647	-0.380498	0.668636
C	-0.214101	-1.08813	-0.237748
O	0.763853	-0.316179	-0.780614
H	1.36065	1.68876	-0.516809
H	-0.71048	1.78511	1.30454
H	-1.80119	-0.745464	1.26224
H	-0.286701	-2.13329	-0.580706
C	8.26003	-0.0854462	0.504112
C	7.92722	-0.435658	-0.787296
N	6.61487	-0.204153	-1.03357
C	6.13536	0.287808	0.100744
N	7.08821	0.378918	1.05853
H	9.21594	-0.13225	1.04962
H	8.61052	-0.851229	-1.54575
H	5.09398	0.59767	0.28447
H	6.95894	0.735381	2.03705
