18
  This energy is -1.4037 and Call times are: 124032
C	0.53467	-0.979608	-0.202233
C	0.517208	-0.398132	1.03144
C	-0.243476	0.80215	0.887222
C	-0.623707	0.848192	-0.421853
O	-0.15721	-0.232035	-1.10193
H	0.997882	-1.91205	-0.564489
H	0.992333	-0.776484	1.95079
H	-0.475401	1.53945	1.67252
H	-1.21891	1.58582	-0.984779
C	5.5834	-0.599984	-0.240908
C	5.1856	-0.123113	0.990148
N	3.99781	0.52349	0.903135
C	3.66002	0.44804	-0.377032
N	4.58365	-0.219765	-1.10816
H	6.47735	-1.16418	-0.550853
H	5.73437	-0.23403	1.93957
H	2.74728	0.8646	-0.832684
H	4.54545	-0.411382	-2.13921
