18
  This energy is -1.6537 and Call times are: 159083
C	-0.916975	0.419956	0.51884
C	-0.330074	-0.748973	0.905527
C	0.778469	-0.939806	0.0252812
C	0.771125	0.129354	-0.821605
O	-0.257522	0.969899	-0.534581
H	-1.7963	0.959885	0.906809
H	-0.646078	-1.41049	1.72811
H	1.49285	-1.7787	0.0296798
H	1.43423	0.403757	-1.65841
C	4.14269	-0.190061	0.783573
C	5.35675	0.420413	1.01709
N	6.10306	0.472055	-0.112896
C	5.35484	-0.10419	-1.04388
N	4.16339	-0.520338	-0.553093
H	3.29377	-0.405646	1.45171
H	5.70755	0.824527	1.98066
H	5.63089	-0.24751	-2.10099
H	3.40072	-1.00268	-1.08875
