18
  This energy is -1.5015 and Call times are: 186586
C	0.641421	0.806057	-0.474607
C	0.397607	-0.388159	-1.0868
C	-0.436502	-1.12384	-0.190612
C	-0.628769	-0.314248	0.890112
O	0.022338	0.868372	0.733642
H	1.23109	1.68242	-0.7901
H	0.767979	-0.717924	-2.07076
H	-0.841429	-2.13742	-0.341573
H	-1.19968	-0.461518	1.82157
C	4.72191	1.0784	0.210096
C	4.12037	0.636528	-0.949235
N	3.75444	-0.664122	-0.844766
C	4.12755	-1.02776	0.374736
N	4.7157	-0.0123911	1.05053
H	5.14002	2.05916	0.487277
H	3.94385	1.23291	-1.85919
H	3.99413	-2.02528	0.823477
H	5.09477	-0.0490931	2.02839
