18
  This energy is -1.2204 and Call times are: 69338
C	0.625775	-0.876591	-0.35552
C	1.08431	0.407649	-0.384695
C	0.0254029	1.2128	0.135466
C	-0.986731	0.349505	0.436587
O	-0.637328	-0.930658	0.143137
H	1.0949	-1.82743	-0.657308
H	2.06939	0.753305	-0.737154
H	0.026244	2.30684	0.266494
H	-1.99096	0.518959	0.858553
C	5.12718	-1.1527	0.235896
C	5.78818	-0.500876	-0.78359
N	5.53128	0.829529	-0.760394
C	4.71402	1.0024	0.269565
N	4.44026	-0.162865	0.902661
H	5.09797	-2.21543	0.524474
H	6.44585	-0.966718	-1.53546
H	4.28614	1.96109	0.604312
H	3.82246	-0.288384	1.7416
