18
  This energy is -0.7993 and Call times are: 84183
C	0.630368	-0.628058	-0.703265
C	0.924086	0.674575	-0.425324
C	-0.0833882	1.11681	0.48547
C	-0.903822	0.0453737	0.683701
O	-0.482829	-1.02883	-0.0345426
H	1.12858	-1.36762	-1.35141
H	1.76577	1.26483	-0.821895
H	-0.178148	2.11811	0.935475
H	-1.80742	-0.0788702	1.30284
C	4.67162	0.0254962	0.333462
C	5.69861	0.800749	0.828856
N	6.87127	0.508014	0.215925
C	6.5729	-0.445219	-0.656397
N	5.25901	-0.77113	-0.623904
H	3.60009	-0.0143539	0.586026
H	5.61445	1.56607	1.61756
H	7.27833	-0.93959	-1.34356
H	4.77919	-1.49311	-1.21533
