18
  This energy is -0.8715 and Call times are: 170690
C	-0.955936	-0.549594	0.265581
C	0.277063	-1.02081	0.60915
C	1.21405	-0.0667049	0.107309
C	0.47092	0.903332	-0.498625
O	-0.856377	0.624584	-0.411476
H	-1.96731	-0.951167	0.441974
H	0.503993	-1.94734	1.16065
H	2.31191	-0.106392	0.192351
H	0.763275	1.82931	-1.02049
C	5.85544	-0.661075	-0.972111
C	6.65207	0.420236	-0.660198
N	6.312	0.947321	0.541071
C	5.30822	0.195858	0.972751
N	4.99552	-0.78751	0.095942
H	5.84012	-1.32732	-1.84928
H	7.46612	0.829514	-1.28041
H	4.76599	0.321749	1.92374
H	4.24164	-1.50883	0.208331
