18
  This energy is -0.6318 and Call times are: 102247
C	-0.319814	1.08309	0.105071
C	-0.86101	0.248969	-0.828592
C	-0.211821	-1.01079	-0.650628
C	0.668775	-0.835289	0.376076
O	0.616148	0.437531	0.849545
H	-0.512795	2.14318	0.337902
H	-1.6393	0.496016	-1.56841
H	-0.386693	-1.93469	-1.22503
H	1.37908	-1.52803	0.856527
C	6.22496	0.920884	0.382746
C	6.50789	0.123961	-0.706294
N	5.57441	-0.846802	-0.857084
C	4.71563	-0.652851	0.134639
N	5.06401	0.401075	0.910179
H	6.75009	1.79206	0.805631
H	7.36886	0.232054	-1.38593
H	3.81457	-1.25326	0.33917
H	4.54804	0.754834	1.75273
