18
  This energy is -0.9606 and Call times are: 38985
C	0.487296	-0.877961	0.527379
C	0.921673	-0.41944	-0.681525
C	0.0698813	0.67834	-1.01235
C	-0.809819	0.793748	0.0235903
O	-0.569469	-0.148691	0.972828
H	0.840824	-1.70411	1.16593
H	1.75801	-0.814621	-1.28024
H	0.114489	1.30354	-1.91857
H	-1.64148	1.49505	0.201828
C	6.15647	-0.807041	-0.401917
C	4.78649	-0.931305	-0.307817
N	4.22757	0.19376	0.200469
C	5.24694	1.01287	0.420857
N	6.43128	0.455614	0.073867
H	6.92949	-1.50451	-0.761782
H	4.19133	-1.8126	-0.597573
H	5.18236	2.03199	0.834926
H	7.37841	0.900628	0.152327
