18
  This energy is -0.8077 and Call times are: 193847
C	0.753721	-0.798777	0.283303
C	1.05773	0.223803	-0.566567
C	-0.130279	1.00946	-0.673722
C	-1.0554	0.397632	0.120127
O	-0.532656	-0.708289	0.712322
H	1.35661	-1.6427	0.656884
H	2.02186	0.40652	-1.06774
H	-0.270402	1.92244	-1.27449
H	-2.10551	0.646874	0.344614
C	4.82975	0.225915	0.434315
C	5.58671	-0.906838	0.646512
N	6.77135	-0.832472	-0.00740719
C	6.7494	0.341949	-0.622937
N	5.59989	1.01791	-0.387766
H	3.83086	0.514831	0.798006
H	5.2993	-1.77644	1.25973
H	7.54858	0.756248	-1.25846
H	5.34406	1.9649	-0.76063
