18
  This energy is -1.1347 and Call times are: 163965
C	-0.0389774	-1.1034	0.259586
C	0.706625	-0.211186	0.972609
C	0.500068	1.05726	0.349316
C	-0.353524	0.828199	-0.68957
O	-0.693028	-0.485916	-0.759208
H	-0.18621	-2.18985	0.374495
H	1.33867	-0.424844	1.84952
H	0.940118	2.02261	0.646877
H	-0.788161	1.50667	-1.44191
C	5.44501	1.00335	0.285211
C	4.65132	0.230495	1.10613
N	4.18417	-0.859022	0.44944
C	4.68615	-0.762441	-0.774211
N	5.45332	0.343364	-0.923316
H	5.98644	1.94488	0.469362
H	4.40739	0.439512	2.16048
H	4.52377	-1.4738	-1.59994
H	5.95825	0.641214	-1.79371
