18
  This energy is -1.5589 and Call times are: 91061
C	-0.465165	-0.823657	-0.625788
C	-0.736128	0.496205	-0.837726
C	0.0264	1.2129	0.134393
C	0.696019	0.267735	0.854562
O	0.407611	-0.981573	0.403938
H	-0.824541	-1.73433	-1.13252
H	-1.40579	0.922353	-1.60195
H	0.0655009	2.30521	0.273742
H	1.39763	0.354274	1.70044
C	4.45054	-0.633119	-0.884441
C	5.66114	0.0267358	-0.870883
N	5.86098	0.656815	0.312154
C	4.77847	0.388863	1.02979
N	3.89815	-0.385586	0.352402
H	3.95942	-1.24104	-1.66082
H	6.39396	0.0594674	-1.69353
H	4.57919	0.734564	2.05693
H	2.97139	-0.731557	0.702665
