18
  This energy is -1.0507 and Call times are: 137586
C	-0.0346818	-0.837775	-0.763761
C	0.874649	0.176479	-0.832906
C	0.604297	1.021	0.28683
C	-0.446376	0.44827	0.941383
O	-0.849387	-0.687736	0.313622
H	-0.203172	-1.71402	-1.4111
H	1.65728	0.315943	-1.59588
H	1.13564	1.94544	0.564641
H	-0.991035	0.747091	1.85204
C	5.94671	1.03173	0.147407
C	6.44591	-0.219001	0.443389
N	5.54538	-1.18728	0.14677
C	4.49152	-0.539709	-0.331408
N	4.68419	0.800467	-0.351334
H	6.38589	2.03649	0.252876
H	7.43973	-0.440074	0.86565
H	3.55247	-0.997949	-0.681303
H	4.00182	1.52527	-0.683436
