18
  This energy is -0.9836 and Call times are: 70254
C	-0.201523	0.87726	0.690076
C	-0.602255	0.866386	-0.613638
C	-0.172166	-0.387964	-1.14443
C	0.45342	-1.03288	-0.118226
O	0.444765	-0.274768	1.0097
H	-0.314023	1.63456	1.48322
H	-1.14616	1.66187	-1.14794
H	-0.316302	-0.75839	-2.1721
H	0.939346	-2.02088	-0.0636293
C	5.91167	0.14683	-0.861431
C	5.65028	-0.176702	0.453161
N	6.79595	-0.265975	1.17148
C	7.76439	0.00115853	0.30581
N	7.2824	0.2567	-0.933534
H	5.24159	0.301497	-1.72202
H	4.65556	-0.347311	0.896189
H	8.84378	0.0231484	0.526443
H	7.84559	0.493421	-1.78679
