18
  This energy is -1.4269 and Call times are: 137202
C	0.267223	-0.439898	1.01068
C	-0.767808	0.432716	0.844462
C	-0.786722	0.756455	-0.546564
C	0.23842	0.0530953	-1.10758
O	0.892797	-0.682965	-0.171089
H	0.65518	-0.951834	1.9066
H	-1.44958	0.810521	1.62327
H	-1.48608	1.43517	-1.0607
H	0.600059	-0.00838902	-2.14714
C	3.73914	0.676133	0.0684496
C	4.09807	-0.341102	0.927257
N	5.26855	-0.909771	0.548987
C	5.63437	-0.247841	-0.540347
N	4.74517	0.71842	-0.870864
H	2.86806	1.35044	0.0595484
H	3.53343	-0.674891	1.81304
H	6.54402	-0.429751	-1.13506
H	4.80979	1.37475	-1.68714
