18
  This energy is -0.8687 and Call times are: 23612
C	0.829069	0.721883	-0.279162
C	-0.45225	0.875005	-0.720919
C	-1.19028	-0.21423	-0.165039
C	-0.294803	-0.936813	0.567338
O	0.943335	-0.379496	0.508823
H	1.73853	1.32035	-0.452283
H	-0.838909	1.67476	-1.37283
H	-2.26292	-0.426914	-0.300263
H	-0.412234	-1.85391	1.16767
C	5.56709	-0.99076	0.286169
C	4.96698	-0.699867	-0.920639
N	4.40563	0.533451	-0.902485
C	4.65655	1.00588	0.310971
N	5.35428	0.124276	1.06565
H	6.11235	-1.88259	0.633846
H	4.92898	-1.3578	-1.80411
H	4.35234	1.99129	0.699114
H	5.6725	0.263605	2.0559
