18
  This energy is -1.1385 and Call times are: 162908
C	0.106727	1.00167	0.521225
C	-0.732805	0.0275267	0.97577
C	-0.590352	-1.06617	0.0682174
C	0.323657	-0.663825	-0.860803
O	0.759916	0.596513	-0.599582
H	0.326636	2.01297	0.900904
H	-1.38679	0.0744257	1.86132
H	-1.11193	-2.03585	0.110203
H	0.741776	-1.17429	-1.74389
C	3.96554	0.878627	0.271441
C	4.6904	0.104038	1.1522
N	5.43487	-0.817433	0.49405
C	5.17286	-0.615268	-0.790125
N	4.29254	0.396636	-0.976335
H	3.26357	1.71097	0.438718
H	4.68954	0.193561	2.25076
H	5.59823	-1.1796	-1.6356
H	3.92847	0.747226	-1.89601
