18
  This energy is -1.0187 and Call times are: 208357
C	0.672767	0.912646	0.0293555
C	1.16623	-0.356159	-0.0543392
C	0.0276325	-1.21846	-0.0669795
C	-1.06109	-0.40047	0.0101061
O	-0.685657	0.904333	0.0696755
H	1.17705	1.89219	0.0673994
H	2.22573	-0.654895	-0.102357
H	0.0288197	-2.31869	-0.126746
H	-2.14106	-0.62073	0.0305623
C	4.74224	0.850391	-0.296198
C	4.81828	0.194544	0.914268
N	5.81038	-0.728608	0.90836
C	6.34778	-0.645773	-0.301171
N	5.73873	0.291816	-1.06509
H	4.0719	1.64845	-0.652959
H	4.17505	0.370921	1.79177
H	7.18919	-1.2482	-0.679767
H	5.9797	0.545005	-2.05458
