18
  This energy is -0.8552 and Call times are: 107812
C	0.140898	-1.12231	0.0834713
C	0.984161	-0.332174	-0.641073
C	0.485247	0.999324	-0.505743
C	-0.618853	0.905306	0.289554
O	-0.84391	-0.383157	0.658639
H	0.133718	-2.20949	0.26582
H	1.86878	-0.654618	-1.21341
H	0.906128	1.9145	-0.952295
H	-1.32022	1.67078	0.660202
C	6.71441	-0.240226	0.292352
C	6.24378	0.112986	-0.954601
N	4.90436	0.317768	-0.931362
C	4.54542	0.0924524	0.325228
N	5.60094	-0.247201	1.10248
H	7.72905	-0.479145	0.648668
H	6.84669	0.223735	-1.87062
H	3.52298	0.162001	0.730189
H	5.57586	-0.472861	2.12703
