18
  This energy is -1.1858 and Call times are: 34375
C	0.120852	0.218592	-1.10635
C	1.02363	0.641332	-0.175405
C	0.532515	0.179015	1.08364
C	-0.62702	-0.485427	0.81093
O	-0.893723	-0.471142	-0.521615
H	0.0873327	0.34244	-2.20124
H	1.94315	1.22061	-0.35708
H	0.995552	0.328576	2.07223
H	-1.34387	-1.00485	1.46787
C	5.16374	-1.10335	-0.313281
C	4.63166	-0.689399	0.889496
N	4.45494	0.654066	0.90909
C	4.8758	1.07197	-0.277022
N	5.31296	0.0500978	-1.05049
H	5.43763	-2.10375	-0.684399
H	4.37211	-1.33605	1.7435
H	4.8859	2.11544	-0.631015
H	5.69315	0.122655	-2.02591
