18
  This energy is -1.1397 and Call times are: 197890
C	-0.170269	0.685277	0.887584
C	-0.397775	-0.65822	0.947845
C	-0.073489	-1.16813	-0.346353
C	0.323557	-0.0912189	-1.08323
O	0.270656	1.04891	-0.345449
H	-0.282253	1.48036	1.64294
H	-0.757835	-1.23255	1.81652
H	-0.132127	-2.21642	-0.680627
H	0.662785	-0.0056293	-2.12863
C	4.78146	-0.179786	-1.14884
C	3.77779	0.573479	-0.577551
N	3.8688	0.563712	0.774533
C	4.92493	-0.192736	1.04102
N	5.50966	-0.664677	-0.0854553
H	5.02105	-0.397819	-2.20174
H	2.9896	1.12383	-1.11675
H	5.31392	-0.433644	2.04346
H	6.35641	-1.28229	-0.138647
