18
  This energy is -0.9316 and Call times are: 167354
C	-0.95982	-0.59444	-0.108576
C	-0.0574437	-0.839204	0.884492
C	1.0015	0.0995092	0.690643
C	0.652746	0.835041	-0.40377
O	-0.542189	0.424821	-0.90463
H	-1.92414	-1.06916	-0.353481
H	-0.130209	-1.60406	1.6743
H	1.91301	0.207179	1.30027
H	1.16184	1.66644	-0.918397
C	6.21463	1.00372	-0.335834
C	6.84446	-0.152346	0.073999
N	5.94344	-1.11459	0.388275
C	4.75915	-0.55758	0.174224
N	4.86929	0.719175	-0.263217
H	6.61522	1.97633	-0.663103
H	7.93287	-0.309373	0.148553
H	3.77937	-1.03976	0.321757
H	4.08019	1.36858	-0.501635
