18
  This energy is -1.1117 and Call times are: 168635
C	-0.945931	-0.222354	0.584957
C	0.0822566	0.505391	1.10802
C	1.07699	0.568121	0.0849411
C	0.568861	-0.126828	-0.972991
O	-0.665779	-0.616539	-0.685139
H	-1.91746	-0.52482	1.00909
H	0.134926	0.95312	2.11343
H	2.05426	1.07416	0.139415
H	0.981403	-0.342011	-1.97237
C	4.79417	0.845095	0.792806
C	5.09508	1.01787	-0.541638
N	5.27112	-0.174464	-1.1612
C	5.08014	-1.08348	-0.214709
N	4.78989	-0.518946	0.981387
H	4.5896	1.57203	1.59484
H	5.18833	1.98151	-1.06848
H	5.14076	-2.17621	-0.343119
H	4.59812	-1.02409	1.881
