18
  This energy is -0.7769 and Call times are: 202384
C	0.323624	-0.0352994	1.08647
C	1.07876	0.558715	0.118334
C	0.348799	0.400243	-1.09911
C	-0.787967	-0.276621	-0.767456
O	-0.819875	-0.550748	0.563276
H	0.487273	-0.156255	2.16991
H	2.05217	1.05836	0.248451
H	0.643713	0.752587	-2.10059
H	-1.63999	-0.618076	-1.37797
C	5.02019	0.944483	-0.175805
C	6.00848	0.80168	0.775001
N	6.59174	-0.418881	0.69402
C	5.96765	-1.03095	-0.303232
N	5.01149	-0.250429	-0.860127
H	4.34499	1.78386	-0.406198
H	6.31113	1.55748	1.51798
H	6.17121	-2.05093	-0.667164
H	4.38323	-0.506695	-1.66067
