18
  This energy is -0.8213 and Call times are: 82135
C	-0.0160034	0.946557	-0.62464
C	0.854253	-0.0749598	-0.868631
C	0.570867	-1.07294	0.113124
C	-0.447546	-0.573178	0.870385
O	-0.818475	0.659262	0.433903
H	-0.162449	1.91761	-1.12549
H	1.61903	-0.121079	-1.66052
H	1.07224	-2.04668	0.233775
H	-0.988296	-0.990714	1.73555
C	4.72685	-0.477217	-0.0755069
C	5.92039	-1.06258	-0.441496
N	6.96336	-0.226624	-0.218076
C	6.41891	0.873154	0.284606
N	5.07277	0.771608	0.390287
H	3.69038	-0.848577	-0.112332
H	6.04766	-2.07312	-0.862761
H	6.9599	1.78249	0.592287
H	4.41743	1.50455	0.757155
