18
  This energy is -0.7596 and Call times are: 154514
C	0.312281	-0.606367	0.906201
C	-0.604286	-1.06052	0.00397058
C	-0.729524	-0.0309959	-0.978122
C	0.121569	0.961406	-0.589338
O	0.766034	0.626881	0.559474
H	0.720991	-1.05944	1.82431
H	-1.1386	-2.02388	0.0276511
H	-1.38024	-0.0374089	-1.86729
H	0.356024	1.94082	-1.03771
C	4.47685	0.324246	0.135964
C	5.21662	0.370741	-1.02667
N	6.47803	-0.0801349	-0.821562
C	6.52064	-0.405104	0.463429
N	5.33863	-0.179686	1.08442
H	3.43295	0.604747	0.348428
H	4.86278	0.721539	-2.00982
H	7.39205	-0.812502	1.00092
H	5.12027	-0.355331	2.09572
