18
  This energy is -0.8205 and Call times are: 111565
C	0.260168	-0.342002	1.04964
C	-0.595605	-1.0366	0.246175
C	-0.667501	-0.301591	-0.976408
C	0.150684	0.777277	-0.812118
O	0.725427	0.76855	0.419387
H	0.614722	-0.53071	2.07625
H	-1.1233	-1.97265	0.489977
H	-1.26202	-0.554458	-1.86899
H	0.405201	1.61126	-1.48661
C	4.724	-0.682664	-0.67977
C	4.3434	0.470504	-0.0267036
N	5.37799	1.00262	0.668278
C	6.39654	0.182676	0.447201
N	6.05291	-0.849081	-0.359637
H	4.16196	-1.3736	-1.32804
H	3.34083	0.928089	-0.0445378
H	7.41587	0.290782	0.851576
H	6.67945	-1.62749	-0.680246
