18
  This energy is -1.2182 and Call times are: 19476
C	-0.384767	-1.00654	0.35388
C	0.840814	-0.526331	0.711263
C	0.961237	0.748225	0.0779208
C	-0.201387	0.934365	-0.610578
O	-1.03495	-0.127438	-0.453244
H	-0.903021	-1.94675	0.604224
H	1.58537	-1.02011	1.35618
H	1.81772	1.43914	0.134153
H	-0.552085	1.76758	-1.24147
C	5.48113	-0.268223	1.13975
C	6.54574	-0.58333	0.322153
N	6.35036	-0.118112	-0.935587
C	5.16904	0.483317	-0.898405
N	4.60468	0.420053	0.330857
H	5.29151	-0.478063	2.20443
H	7.45132	-1.13802	0.617262
H	4.67027	0.986089	-1.74261
H	3.67634	0.819254	0.613831
