18
  This energy is -0.782 and Call times are: 152626
C	0.619441	0.679842	0.663708
C	-0.676438	0.957124	0.34093
C	-1.10869	-0.115521	-0.497349
C	-0.0387921	-0.953591	-0.61283
O	1.02523	-0.483349	0.0898342
H	1.35055	1.22317	1.28461
H	-1.26855	1.8295	0.661032
H	-2.10257	-0.240165	-0.956421
H	0.0908871	-1.90274	-1.15831
C	5.53641	-0.882922	0.777313
C	4.53073	-0.618525	-0.128135
N	4.81717	0.478832	-0.869936
C	5.99608	0.893628	-0.426367
N	6.4716	0.10568	0.566912
H	5.64902	-1.67809	1.53134
H	3.60358	-1.19991	-0.25945
H	6.55605	1.76869	-0.793693
H	7.37968	0.225102	1.07915
