18
  This energy is -0.7717 and Call times are: 19187
C	0.934371	-0.00486725	0.642906
C	-0.319476	-0.0674365	1.17613
C	-1.2182	-0.0384305	0.0663638
C	-0.43421	0.0393029	-1.04705
O	0.883117	0.0608013	-0.713587
H	1.93035	0.000477898	1.1154
H	-0.584875	-0.127945	2.24383
H	-2.31895	-0.0719781	0.102553
H	-0.688717	0.085007	-2.11868
C	6.76572	0.0722042	0.144824
C	5.8056	0.844664	0.763382
N	4.56051	0.490144	0.362672
C	4.74749	-0.498491	-0.501192
N	6.05995	-0.787703	-0.66674
H	7.86461	0.0735224	0.222146
H	5.98897	1.65144	1.49162
H	3.95829	-1.04586	-1.04135
H	6.46309	-1.52627	-1.29384
