18
  This energy is -1.2649 and Call times are: 15614
C	-0.251178	0.873628	0.678296
C	-0.11595	1.01247	-0.671819
C	0.196692	-0.289371	-1.16939
C	0.224915	-1.10883	-0.0794053
O	-0.0463718	-0.415293	1.05744
H	-0.48815	1.60498	1.46837
H	-0.225381	1.93872	-1.25849
H	0.377859	-0.573176	-2.21854
H	0.422953	-2.18887	0.0183526
C	3.77504	-0.829057	-0.131167
C	4.37851	-0.441153	1.04633
N	5.28498	0.542695	0.829825
C	5.24401	0.764302	-0.477017
N	4.34905	-0.037762	-1.10099
H	3.00348	-1.58692	-0.340618
H	4.17609	-0.853558	2.04823
H	5.84805	1.50231	-1.02903
H	4.13351	-0.053783	-2.1279
