18
  This energy is -0.9078 and Call times are: 196948
C	-0.677773	-0.846989	0.331111
C	0.356327	-0.396581	1.09802
C	0.964386	0.659634	0.353174
C	0.248184	0.761425	-0.803142
O	-0.758511	-0.151076	-0.833448
H	-1.41922	-1.64522	0.499416
H	0.66043	-0.7706	2.08884
H	1.83367	1.26736	0.651669
H	0.352785	1.43281	-1.67121
C	6.09599	0.122186	-0.858235
C	5.39822	-1.02185	-0.533528
N	4.56209	-0.804445	0.510571
C	4.74048	0.469622	0.832371
N	5.65544	1.07187	0.0363039
H	6.84972	0.32108	-1.6366
H	5.48311	-2.00024	-1.03392
H	4.22685	1.0121	1.64239
H	5.96942	2.07176	0.0902495
