18
  This energy is -1.5493 and Call times are: 94981
C	0.247311	0.945263	0.575947
C	-0.297123	-0.153076	1.17396
C	-0.460175	-1.12216	0.13742
C	-0.000984589	-0.530466	-1.0025
O	0.434931	0.732393	-0.753149
H	0.543331	1.92692	0.980893
H	-0.557758	-0.269192	2.23823
H	-0.872365	-2.13903	0.238241
H	0.0681655	-0.897197	-2.03979
C	5.15705	0.513357	0.45345
C	4.21907	-0.234992	1.13265
N	3.24678	-0.674758	0.29732
C	3.58031	-0.201027	-0.895559
N	4.72451	0.521927	-0.853847
H	6.07124	1.0234	0.796446
H	4.22646	-0.465485	2.21046
H	3.02209	-0.35352	-1.83331
H	5.1929	0.998231	-1.66317
