18
  This energy is -1.6859 and Call times are: 95245
C	-0.826422	-0.596814	0.497233
C	-0.739987	-0.456436	-0.856723
C	0.414853	0.350109	-1.09326
C	0.932178	0.631399	0.137038
O	0.186731	0.0610653	1.11991
H	-1.55146	-1.13229	1.13193
H	-1.42113	-0.878507	-1.61303
H	0.807127	0.677715	-2.06942
H	1.81399	1.21815	0.442623
C	5.25592	0.717492	-0.919775
C	6.20698	0.336263	0.00288235
N	5.6805	-0.500011	0.930232
C	4.40767	-0.637062	0.584192
N	4.10246	0.0773449	-0.52489
H	5.31629	1.37702	-1.80007
H	7.26361	0.649643	0.0160535
H	3.65529	-1.24848	1.10796
H	3.16565	0.132993	-0.994502
