18
  This energy is -0.8724 and Call times are: 193367
C	1.03823	-0.326407	-0.319289
C	0.456493	0.816245	-0.784377
C	-0.82777	0.882158	-0.162732
C	-0.91746	-0.226034	0.627356
O	0.213232	-0.975426	0.543944
H	2.0212	-0.781749	-0.52342
H	0.888418	1.54009	-1.49402
H	-1.58956	1.66727	-0.294558
H	-1.72141	-0.589664	1.28818
C	5.96782	0.205152	-0.868023
C	5.4509	-1.01657	-0.492065
N	4.5923	-0.884656	0.548087
C	4.57662	0.413955	0.816391
N	5.38966	1.11378	-0.00993029
H	6.68235	0.483006	-1.65908
H	5.68208	-1.99084	-0.952706
H	3.98761	0.905864	1.60716
H	5.54921	2.15093	0.000991629
