18
  This energy is -1.0327 and Call times are: 81686
C	0.157735	1.12286	-0.0264857
C	-0.242958	0.467945	1.10086
C	-0.328136	-0.911943	0.742008
C	0.0280256	-0.978442	-0.572945
O	0.327991	0.254997	-1.05839
H	0.354684	2.1899	-0.22115
H	-0.457068	0.912007	2.08628
H	-0.621418	-1.75048	1.39388
H	0.106459	-1.83138	-1.26691
C	4.81306	-1.14377	0.276964
C	3.84315	-0.477385	-0.441618
N	4.14903	0.83618	-0.573898
C	5.30429	0.984131	0.0602087
N	5.74616	-0.180847	0.590468
H	4.90232	-2.19985	0.5774
H	2.92815	-0.920867	-0.866991
H	5.87017	1.92365	0.166584
H	6.63098	-0.323395	1.13639
