18
  This energy is -0.8599 and Call times are: 60466
C	-0.00184374	-0.805	0.798982
C	0.634377	0.389688	0.967263
C	0.413066	1.12369	-0.237885
C	-0.338859	0.312743	-1.03623
O	-0.601567	-0.869162	-0.418896
H	-0.100416	-1.68052	1.46155
H	1.20253	0.720846	1.85136
H	0.775515	2.13709	-0.473964
H	-0.745364	0.458511	-2.0505
C	6.50772	0.277039	0.285134
C	6.02223	-0.974951	-0.0278651
N	4.69676	-0.929473	-0.306354
C	4.36123	0.345882	-0.166653
N	5.41827	1.11375	0.18918
H	7.51768	0.620338	0.560193
H	6.60462	-1.91025	-0.0577364
H	3.35552	0.771784	-0.312863
H	5.40958	2.14921	0.359515
