18
  This energy is -1.1761 and Call times are: 41901
C	-0.388246	-1.05006	0.181775
C	-0.22181	-0.539705	-1.0721
C	0.276431	0.786655	-0.89143
C	0.370479	0.969733	0.456906
O	-0.0313695	-0.141828	1.1277
H	-0.748041	-2.03235	0.529489
H	-0.429102	-1.04642	-2.02833
H	0.532249	1.51278	-1.67972
H	0.703936	1.83294	1.05601
C	5.0574	-0.126699	-1.11414
C	3.76681	-0.236833	-0.641513
N	3.71725	-0.0299887	0.696871
C	4.97233	0.207563	1.05319
N	5.8184	0.160439	-0.00300384
H	5.47424	-0.228926	-2.1287
H	2.87052	-0.461837	-1.24226
H	5.3273	0.421859	2.07412
H	6.85633	0.313479	0.0201287
