18
  This energy is -1.7455 and Call times are: 75479
C	-0.359355	1.06922	-0.118455
C	-0.716098	0.29225	0.944289
C	-0.0751294	-0.967741	0.740083
C	0.616718	-0.849504	-0.429422
O	0.454418	0.387947	-0.967368
H	-0.614512	2.10866	-0.382492
H	-1.36547	0.577756	1.78744
H	-0.128727	-1.85339	1.39342
H	1.25341	-1.56322	-0.977591
C	4.29547	0.470624	-1.07447
C	4.94891	-0.646744	-0.599443
N	4.60283	-0.906084	0.684879
C	3.73799	0.0467731	1.00539
N	3.51945	0.901634	-0.0217636
H	4.32674	0.972815	-2.05445
H	5.66388	-1.27043	-1.16041
H	3.23469	0.165415	1.97845
H	2.88057	1.73415	-0.0171042
