18
  This energy is -1.1389 and Call times are: 198381
C	1.07638	0.285697	-0.214906
C	0.47856	0.540363	0.984315
C	-0.854761	0.0409674	0.870399
C	-0.954013	-0.474787	-0.388378
O	0.216059	-0.33387	-1.0652
H	2.09467	0.492968	-0.582827
H	0.931098	1.0307	1.86117
H	-1.64154	0.0671188	1.64137
H	-1.7909	-0.962376	-0.914803
C	4.71494	-0.98745	0.613016
C	4.99056	0.263652	1.12284
N	5.14714	1.17235	0.129734
C	4.96933	0.487588	-0.991919
N	4.70611	-0.819138	-0.753652
H	4.53061	-1.95341	1.10947
H	5.07925	0.526915	2.18946
H	5.0208	0.893772	-2.01495
H	4.52903	-1.56244	-1.47296
