18
  This energy is -1.1936 and Call times are: 192716
C	0.498535	-0.678327	0.760089
C	-0.688436	-0.053237	1.00653
C	-0.985617	0.699592	-0.170348
C	0.0459856	0.468087	-1.03208
O	0.961442	-0.371215	-0.480238
H	1.1089	-1.35791	1.37724
H	-1.29398	-0.115983	1.92494
H	-1.86739	1.3366	-0.345843
H	0.242853	0.835994	-2.05244
C	4.18119	-0.0996365	-1.15208
C	4.74203	0.982146	-0.506836
N	4.84883	0.755219	0.824934
C	4.35611	-0.462711	1.0052
N	3.94024	-1.02012	-0.156669
H	3.94438	-0.273769	-2.21375
H	5.07154	1.92232	-0.978382
H	4.27618	-0.994281	1.96711
H	3.51523	-1.97211	-0.276405
