18
  This energy is -1.6919 and Call times are: 162972
C	0.361132	0.401699	-0.997308
C	0.741839	-0.817996	-0.520044
C	0.0898864	-0.964774	0.742307
C	-0.631667	0.178184	0.925012
O	-0.477676	1.02388	-0.12765
H	0.614166	0.93364	-1.92911
H	1.41431	-1.54173	-1.00798
H	0.15637	-1.82494	1.42772
H	-1.28576	0.505897	1.74964
C	5.12796	-0.832078	-0.0849648
C	4.74163	0.0542919	-1.06794
N	3.75873	0.875988	-0.626092
C	3.53614	0.500803	0.626232
N	4.33667	-0.52555	0.999512
H	5.88474	-1.63258	-0.0805788
H	5.1545	0.115624	-2.08805
H	2.79848	0.943665	1.31468
H	4.3517	-0.997822	1.93652
