18
  This energy is -2.1036 and Call times are: 69788
C	0.26487	1.04167	-0.362183
C	-0.332145	0.817372	0.843487
C	-0.501871	-0.597646	0.938527
C	0.00641072	-1.11314	-0.217454
O	0.478992	-0.126193	-1.02345
H	0.58403	1.97312	-0.857947
H	-0.623759	1.57261	1.59094
H	-0.951243	-1.15766	1.77431
H	0.0894144	-2.15054	-0.58098
C	3.19372	-0.062725	1.06058
C	3.44706	-1.11085	0.201284
N	4.04238	-0.67714	-0.936257
C	4.15792	0.635057	-0.78324
N	3.66079	1.05423	0.404508
H	2.72959	-0.0336167	2.05922
H	3.21096	-2.17224	0.381725
H	4.59873	1.33651	-1.50979
H	3.6359	2.04192	0.758225
