18
  This energy is -0.7605 and Call times are: 188328
C	0.111629	-1.10171	-0.24531
C	-0.739445	-0.65105	0.720585
C	-0.599958	0.7704	0.732408
C	0.32404	1.06289	-0.227306
O	0.769245	-0.0685451	-0.834483
H	0.337519	-2.11939	-0.603853
H	-1.39927	-1.25865	1.36055
H	-1.13013	1.48403	1.38336
H	0.744012	2.02302	-0.569399
C	6.55756	-0.507972	0.0928384
C	6.19656	0.741383	0.551028
N	4.89692	1.00686	0.273593
C	4.45335	-0.0736891	-0.354322
N	5.41688	-1.01568	-0.48791
H	7.51357	-1.05349	0.137458
H	6.85058	1.45598	1.07682
H	3.43175	-0.2277	-0.737536
H	5.3145	-1.95401	-0.946506
