18
  This energy is -1.3607 and Call times are: 40311
C	0.988176	-0.173434	0.52899
C	0.556046	1.07185	0.178418
C	-0.709096	0.882241	-0.456863
C	-0.938393	-0.462176	-0.438421
O	0.0878992	-1.12227	0.159916
H	1.90524	-0.512653	1.03809
H	1.07603	2.02803	0.34997
H	-1.36505	1.66218	-0.8758
H	-1.78165	-1.06522	-0.813253
C	4.43018	0.22606	-1.14243
C	4.59041	1.14944	-0.131075
N	4.765	0.538011	1.06566
C	4.71328	-0.759745	0.79775
N	4.51302	-0.999384	-0.519846
H	4.26847	0.350137	-2.22502
H	4.58316	2.24587	-0.243461
H	4.81605	-1.57764	1.529
H	4.43561	-1.93956	-0.979556
