18
  This energy is -0.8353 and Call times are: 100570
C	-0.675629	-0.721079	-0.556751
C	0.562524	-1.07773	-0.109365
C	1.09568	0.0819991	0.53165
C	0.136264	1.04496	0.419394
O	-0.952339	0.571866	-0.242526
H	-1.44634	-1.28783	-1.10452
H	1.05136	-2.05903	-0.219685
H	2.08008	0.178648	1.01715
H	0.107386	2.09185	0.763535
C	4.82423	-0.186368	-0.439408
C	5.9373	0.24344	-1.13041
N	7.01062	0.350365	-0.309999
C	6.56509	-0.0117338	0.885417
N	5.2528	-0.344617	0.859619
H	3.79192	-0.384219	-0.769149
H	5.98515	0.478307	-2.20623
H	7.15737	-0.0511239	1.8138
H	4.6724	-0.662664	1.67402
