18
  This energy is -0.6724 and Call times are: 212458
C	0.762875	0.467355	-0.697139
C	0.665158	0.815863	0.617916
C	-0.394571	0.0228977	1.15485
C	-0.850889	-0.740179	0.12051
O	-0.155404	-0.481717	-1.01813
H	1.43489	0.816796	-1.4981
H	1.27787	1.55699	1.15589
H	-0.766873	0.026971	2.1919
H	-1.65338	-1.49407	0.0666396
C	5.89181	1.16814	0.110027
C	4.80738	0.464912	-0.370201
N	5.0457	-0.869091	-0.357809
C	6.2733	-0.992969	0.128259
N	6.82595	0.206917	0.425649
H	6.0593	2.24854	0.245004
H	3.85729	0.896194	-0.725401
H	6.81561	-1.93894	0.287219
H	7.78359	0.373285	0.821278
