18
  This energy is -1.3048 and Call times are: 195698
C	0.255053	1.07325	0.263612
C	1.08381	0.0314486	0.560578
C	0.426281	-1.14109	0.0779673
C	-0.746243	-0.712311	-0.471312
O	-0.867276	0.637291	-0.366729
H	0.348415	2.15652	0.445411
H	2.06022	0.0834495	1.06853
H	0.791519	-2.17896	0.137336
H	-1.56777	-1.26051	-0.961018
C	4.50569	1.13726	-0.0714707
C	4.46993	0.207715	-1.08922
N	4.87703	-1.00936	-0.653893
C	5.16425	-0.835517	0.629036
N	4.95678	0.441721	1.02804
H	4.25058	2.20875	-0.0524664
H	4.15769	0.393437	-2.12982
H	5.53017	-1.60973	1.32252
H	5.11029	0.828466	1.99144
