18
  This energy is -1.3309 and Call times are: 212618
C	-0.00946982	0.164987	-1.12209
C	0.0220521	1.19813	-0.232148
C	0.0245375	0.597826	1.0639
C	-0.00568459	-0.749158	0.851546
O	-0.0267571	-1.03145	-0.477694
H	-0.0224318	0.149612	-2.22429
H	0.0415926	2.27493	-0.464995
H	0.046388	1.11665	2.03573
H	-0.0151883	-1.59979	1.55267
C	3.57321	-0.211237	0.810485
C	4.22198	0.983799	0.582177
N	5.1158	0.868958	-0.429951
C	5.02189	-0.392526	-0.828025
N	4.10537	-1.08509	-0.111135
H	2.7964	-0.492285	1.53927
H	4.06114	1.92681	1.12963
H	5.60093	-0.861325	-1.63992
H	3.84899	-2.09526	-0.233974
