18
  This energy is -1.29 and Call times are: 116112
C	-0.176466	-0.274164	-1.08632
C	-1.20056	-0.0372118	-0.217152
C	-0.58698	0.272588	1.03491
C	0.757901	0.197603	0.820329
O	1.02662	-0.135181	-0.469654
H	-0.172357	-0.546441	-2.15454
H	-2.2798	-0.0766307	-0.435774
H	-1.0959	0.521126	1.98007
H	1.61575	0.356381	1.49423
C	4.30407	-1.08053	-0.456437
C	4.35928	-0.749014	0.880796
N	4.46968	0.5913	1.04777
C	4.48291	1.08938	-0.181195
N	4.3855	0.121537	-1.12321
H	4.21554	-2.05432	-0.963831
H	4.32143	-1.45292	1.7281
H	4.56211	2.15553	-0.448185
H	4.37417	0.260393	-2.16333
