18
  This energy is -0.7404 and Call times are: 46948
C	0.729885	-0.164509	0.852412
C	-0.359359	-0.962381	0.659221
C	-1.02275	-0.445581	-0.495315
C	-0.280326	0.622478	-0.905726
O	0.79377	0.80862	-0.0941349
H	1.52463	-0.184587	1.61611
H	-0.665021	-1.82802	1.2686
H	-1.94502	-0.830854	-0.959069
H	-0.408618	1.32148	-1.74845
C	6.03097	0.391771	0.735599
C	4.67951	0.658248	0.796416
N	4.01439	0.0433546	-0.211566
C	4.94966	-0.602131	-0.895109
N	6.1823	-0.423428	-0.363827
H	6.86781	0.713813	1.37554
H	4.17245	1.28317	1.54955
H	4.78678	-1.22038	-1.79259
H	7.08188	-0.828663	-0.721312
