18
  This energy is -1.5581 and Call times are: 123775
C	0.90834	-0.67834	-0.0342549
C	0.930938	0.597525	-0.515951
C	-0.379771	1.12129	-0.297261
C	-1.08762	0.119258	0.298769
O	-0.316546	-0.987151	0.467043
H	1.68732	-1.45713	0.00966774
H	1.78493	1.11765	-0.978837
H	-0.744075	2.12826	-0.556876
H	-2.13237	0.0692352	0.646977
C	4.84838	-0.831999	-0.517934
C	6.22121	-0.815915	-0.390659
N	6.6384	0.295864	0.262343
C	5.5286	0.966946	0.539119
N	4.42257	0.32824	0.089291
H	4.16702	-1.56261	-0.98216
H	6.91816	-1.5866	-0.758307
H	5.46875	1.93118	1.06911
H	3.42982	0.654679	0.184882
