18
  This energy is -1.062 and Call times are: 194137
C	0.32964	-0.436483	-0.99359
C	-0.49861	-1.10519	-0.140825
C	-0.679833	-0.243788	0.984014
C	0.0536728	0.875266	0.719325
O	0.676803	0.774745	-0.48426
H	0.73984	-0.710522	-1.97943
H	-0.937883	-2.10478	-0.289023
H	-1.28755	-0.442707	1.88135
H	0.21172	1.79978	1.29858
C	4.15105	0.672372	-0.180305
C	4.6458	-0.302971	-1.01999
N	5.755	-0.88056	-0.497909
C	5.94764	-0.265874	0.661261
N	5.00699	0.678876	0.898359
H	3.27953	1.34002	-0.270989
H	4.22227	-0.600259	-1.99318
H	6.76196	-0.468484	1.37545
H	4.94208	1.2983	1.74296
