18
  This energy is -1.3279 and Call times are: 34779
C	0.415718	-1.02756	0.240194
C	-0.569642	-0.835833	-0.683212
C	-0.819015	0.570422	-0.702653
C	0.0359714	1.11389	0.210588
O	0.797533	0.152431	0.795929
H	0.924013	-1.94191	0.587852
H	-1.07063	-1.60729	-1.28981
H	-1.55179	1.10607	-1.32733
H	0.197289	2.15622	0.531196
C	4.03472	-0.62695	-0.88065
C	4.96752	0.38291	-0.986552
N	5.28122	0.888	0.231228
C	4.54583	0.194123	1.08934
N	3.77723	-0.731521	0.468035
H	3.55203	-1.25755	-1.64412
H	5.4198	0.756114	-1.91983
H	4.53153	0.322883	2.18362
H	3.11193	-1.40125	0.926382
