18
  This energy is -1.0118 and Call times are: 153138
C	-1.01904	-0.0175742	0.497645
C	0.0376787	-0.738226	0.971334
C	1.12722	-0.459345	0.0908614
C	0.64013	0.407109	-0.843146
O	-0.669027	0.687789	-0.61004
H	-2.0579	0.0771427	0.854095
H	0.0487969	-1.39983	1.85239
H	2.15107	-0.86173	0.15352
H	1.11727	0.889862	-1.71179
C	6.20892	-0.653427	0.363305
C	5.37521	0.114053	1.14883
N	4.43278	0.735514	0.399088
C	4.68088	0.355018	-0.846822
N	5.74211	-0.482779	-0.920889
H	7.07256	-1.28779	0.61875
H	5.43683	0.230499	2.24313
H	4.11652	0.660003	-1.74276
H	6.13453	-0.919199	-1.79083
