18
  This energy is -0.9554 and Call times are: 90805
C	0.0636701	-0.7961	-0.80534
C	0.524475	-1.00068	0.462011
C	0.270951	0.213112	1.17092
C	-0.322399	1.05227	0.274194
O	-0.456829	0.452315	-0.937825
H	0.0482693	-1.45065	-1.69223
H	0.995651	-1.91464	0.85794
H	0.506478	0.427359	2.22578
H	-0.690554	2.08659	0.373682
C	5.92882	-0.161403	-0.874254
C	5.74043	-0.454085	0.459909
N	6.83873	-0.139774	1.18892
C	7.70517	0.346051	0.310362
N	7.2037	0.353883	-0.947433
H	5.26792	-0.279404	-1.74766
H	4.83171	-0.886413	0.909534
H	8.72074	0.71035	0.534278
H	7.69286	0.688696	-1.81339
