18
  This energy is -1.5674 and Call times are: 194889
C	-0.411771	-0.779258	0.713865
C	-0.770904	0.534869	0.780711
C	-0.053918	1.18991	-0.266654
C	0.680061	0.218239	-0.881073
O	0.473711	-0.990572	-0.295233
H	-0.711713	-1.65081	1.31858
H	-1.47053	0.996634	1.49583
H	-0.0871089	2.26052	-0.525055
H	1.37773	0.258104	-1.73367
C	5.21709	-0.983257	-0.4943
C	5.94521	0.122553	-0.109366
N	5.14239	1.07407	0.425988
C	3.92087	0.560508	0.373373
N	3.9132	-0.678329	-0.173266
H	5.52429	-1.93389	-0.958481
H	7.03543	0.250862	-0.208335
H	2.99637	1.04884	0.721314
H	3.07389	-1.29	-0.323844
