18
  This energy is -1.6664 and Call times are: 19540
C	-0.246936	-1.04746	0.358135
C	-0.228068	-0.713064	-0.96406
C	0.11945	0.671502	-1.01228
C	0.282266	1.06097	0.28471
O	0.0623819	0.0238699	1.13505
H	-0.462517	-2.00068	0.868175
H	-0.437827	-1.375	-1.81959
H	0.232705	1.29651	-1.91263
H	0.550222	2.03424	0.727662
C	3.5392	-0.392484	0.554905
C	4.66903	0.143818	1.13544
N	5.58238	0.491989	0.196784
C	5.02131	0.172896	-0.961664
N	3.78882	-0.36387	-0.799
H	2.60633	-0.779559	0.994752
H	4.84152	0.285769	2.21477
H	5.46896	0.310961	-1.95905
H	3.1459	-0.695127	-1.55938
