18
  This energy is -0.8164 and Call times are: 20342
C	-0.123522	0.704152	0.880519
C	-1.16191	-0.0203907	0.37341
C	-0.619232	-0.77525	-0.710935
C	0.702875	-0.445354	-0.770731
O	1.02295	0.456952	0.193847
H	-0.0716296	1.42114	1.71628
H	-2.20535	-0.0230167	0.727418
H	-1.15826	-1.47951	-1.36482
H	1.50985	-0.77868	-1.44373
C	4.59308	0.531552	0.297737
C	5.45821	0.902565	-0.709755
N	6.52176	0.065128	-0.773593
C	6.3172	-0.822034	0.190628
N	5.16758	-0.583784	0.865323
H	3.64101	0.967739	0.639562
H	5.33404	1.7595	-1.39173
H	6.97745	-1.66654	0.445802
H	4.78651	-1.14229	1.66789
