18
  This energy is -1.121 and Call times are: 142074
C	0.493459	0.0486293	1.02007
C	-0.347811	-0.963919	0.663156
C	-0.759402	-0.677237	-0.674201
C	-0.133315	0.485191	-1.01647
O	0.635894	0.942548	0.00634322
H	1.04675	0.244868	1.95313
H	-0.64838	-1.8262	1.27978
H	-1.44254	-1.27305	-1.30064
H	-0.152709	1.08032	-1.94421
C	5.35461	0.335018	-0.838703
C	4.65629	-0.852445	-0.78016
N	3.87591	-0.906331	0.326463
C	4.08929	0.24333	0.95206
N	4.97309	1.02647	0.289357
H	6.07212	0.723962	-1.5786
H	4.70156	-1.67127	-1.51659
H	3.62443	0.562703	1.89871
H	5.30454	1.97893	0.579576
