18
  This energy is -0.6958 and Call times are: 162362
C	-0.789931	0.1778	-0.794227
C	-0.898884	-0.814653	0.135042
C	0.272399	-0.720304	0.947022
C	0.993708	0.321476	0.442263
O	0.359802	0.881556	-0.62145
H	-1.45375	0.48224	-1.62001
H	-1.72154	-1.54037	0.238358
H	0.538448	-1.35832	1.80507
H	1.95962	0.757194	0.746272
C	6.40433	-0.517212	0.867392
C	6.70663	-0.53691	-0.477737
N	5.79438	0.164129	-1.19388
C	4.92944	0.61701	-0.296441
N	5.25354	0.233185	0.961029
H	6.90983	-0.969014	1.73566
H	7.56663	-1.0444	-0.944329
H	4.04092	1.23422	-0.505754
H	4.72826	0.463371	1.83986
