18
  This energy is -1.5512 and Call times are: 164285
C	0.548503	0.799488	0.588527
C	0.200659	-0.400645	1.13539
C	-0.463568	-1.12482	0.0988148
C	-0.462987	-0.303298	-0.989977
O	0.150994	0.876107	-0.708828
H	1.07399	1.67109	1.0121
H	0.392564	-0.74174	2.1654
H	-0.889057	-2.13904	0.165338
H	-0.861702	-0.439317	-2.00869
C	3.64999	0.542106	-0.817742
C	3.9721	1.02085	0.434533
N	4.73747	0.133323	1.11497
C	4.88961	-0.892125	0.287968
N	4.25276	-0.693844	-0.890461
H	3.05436	0.978899	-1.63504
H	3.66594	1.99077	0.859256
H	5.45746	-1.81354	0.494801
H	4.2237	-1.35555	-1.70444
