18
  This energy is -2.0753 and Call times are: 169353
C	0.347679	-0.840732	0.677267
C	0.361221	0.465725	1.06888
C	-0.142192	1.21163	-0.0403165
C	-0.418922	0.295137	-1.01183
O	-0.125793	-0.963337	-0.590725
H	0.645096	-1.76407	1.20095
H	0.692479	0.864194	2.04129
H	-0.278852	2.30341	-0.098896
H	-0.821955	0.409652	-2.03149
C	4.02949	-0.949377	-0.68338
C	3.29586	0.182425	-0.969646
N	3.36661	1.07978	0.0433956
C	4.14119	0.506857	0.954659
N	4.56621	-0.717837	0.563419
H	4.20187	-1.87239	-1.25946
H	2.71676	0.367594	-1.889
H	4.42921	0.93996	1.9261
H	5.18644	-1.36726	1.1064
