18
  This energy is -0.6911 and Call times are: 181811
C	-0.474987	0.261165	-0.996284
C	-1.19947	-0.219486	0.0546554
C	-0.263212	-0.424859	1.1136
C	0.950754	-0.0515785	0.616285
O	0.840047	0.370061	-0.670951
H	-0.773689	0.559395	-2.01466
H	-2.28435	-0.410276	0.0814846
H	-0.477852	-0.806542	2.12471
H	1.95476	-0.0391044	1.07133
C	5.95954	0.32293	0.983732
C	4.89483	-0.547604	0.885109
N	4.49855	-0.690937	-0.402883
C	5.3143	0.0877158	-1.10064
N	6.2132	0.720539	-0.310002
H	6.53544	0.675851	1.85397
H	4.4055	-1.07483	1.72023
H	5.29732	0.231335	-2.19303
H	6.96091	1.38708	-0.622913
