18
  This energy is -0.6736 and Call times are: 168443
C	-0.594075	-0.96586	0.0242933
C	0.747186	-0.939303	-0.22206
C	1.12708	0.436599	-0.170183
C	-0.0155691	1.12938	0.103292
O	-1.07643	0.288713	0.225273
H	-1.31025	-1.80187	0.0827727
H	1.40323	-1.80206	-0.420415
H	2.13623	0.852729	-0.320319
H	-0.203164	2.20779	0.233952
C	6.36612	0.199655	-1.14788
C	5.19125	-0.183105	-0.536075
N	5.35994	-0.323558	0.801209
C	6.63462	-0.029051	1.01819
N	7.28396	0.292964	-0.125601
H	6.60601	0.405379	-2.20319
H	4.22489	-0.360435	-1.03562
H	7.14415	-0.0334047	1.99523
H	8.29413	0.562381	-0.21637
