18
  This energy is -1.378 and Call times are: 13230
C	-0.414816	-0.826082	0.657204
C	0.800032	-0.250239	0.887253
C	0.967329	0.731837	-0.136298
C	-0.160055	0.669432	-0.901468
O	-1.01503	-0.276591	-0.431288
H	-0.957316	-1.62543	1.18823
H	1.50739	-0.492717	1.69654
H	1.83019	1.40219	-0.278396
H	-0.469779	1.23655	-1.79461
C	4.85266	-0.846769	0.49903
C	6.12144	-0.975529	-0.0251487
N	6.56757	0.204379	-0.520424
C	5.57932	1.06186	-0.304322
N	4.52289	0.476451	0.307921
H	4.18342	-1.57871	0.97853
H	6.72294	-1.89866	-0.0548445
H	5.5768	2.13018	-0.574366
H	3.62388	0.941884	0.584359
