18
  This energy is -0.8822 and Call times are: 136353
C	-0.655264	-0.70177	0.603779
C	-0.60043	0.638783	0.849311
C	0.320057	1.17338	-0.103067
C	0.746461	0.112325	-0.84651
O	0.161023	-1.04076	-0.428583
H	-1.22805	-1.51061	1.08643
H	-1.15277	1.19534	1.62343
H	0.623301	2.22685	-0.214179
H	1.45444	0.0473322	-1.689
C	5.99803	0.409438	-0.0558582
C	6.40824	-0.892046	-0.253378
N	7.75109	-1.00784	-0.112515
C	8.17236	0.217153	0.171313
N	7.1532	1.10757	0.21688
H	4.99915	0.872766	-0.0889759
H	5.75931	-1.74958	-0.495003
H	9.21645	0.517736	0.355049
H	7.22863	2.13415	0.421069
