18
  This energy is -0.9821 and Call times are: 139444
C	0.571654	0.751201	0.628736
C	-0.570507	1.07829	-0.0412313
C	-0.988329	-0.114232	-0.707139
C	-0.0646101	-1.06478	-0.385313
O	0.89527	-0.553678	0.429804
H	1.23817	1.34841	1.27244
H	-1.0688	2.06077	-0.0641998
H	-1.87499	-0.240191	-1.34906
H	0.0205471	-2.12686	-0.668153
C	4.84441	0.867916	0.752654
C	4.27407	-0.386751	0.711856
N	4.80743	-1.13376	-0.285144
C	5.70524	-0.345518	-0.860669
N	5.76524	0.872062	-0.271186
H	4.66612	1.72938	1.41569
H	3.48727	-0.766358	1.38395
H	6.34616	-0.609648	-1.71722
H	6.39351	1.66766	-0.542402
