18
  This energy is -0.9631 and Call times are: 35962
C	-0.533675	-0.707224	0.708114
C	-0.905054	-0.561529	-0.596196
C	-0.00892042	0.401496	-1.15265
C	0.830964	0.759279	-0.139264
O	0.524914	0.0919102	1.0044
H	-0.936757	-1.33862	1.51689
H	-1.72754	-1.08018	-1.11447
H	0.00154152	0.777968	-2.18815
H	1.67476	1.46784	-0.104742
C	5.92667	0.522377	0.241162
C	5.05046	-0.0377906	1.14648
N	3.96409	-0.552414	0.520796
C	4.16559	-0.312417	-0.767778
N	5.33513	0.333575	-0.987909
H	6.89694	1.02523	0.379928
H	5.18268	-0.0798383	2.23991
H	3.48886	-0.588225	-1.59253
H	5.71828	0.633468	-1.9177
