18
  This energy is -0.8972 and Call times are: 131087
C	-0.0704561	-0.539148	-0.995368
C	-0.319795	-1.16221	0.192066
C	-0.130976	-0.169632	1.20165
C	0.217079	0.972357	0.542033
O	0.258887	0.764903	-0.800437
H	-0.0931366	-0.908576	-2.03376
H	-0.607792	-2.21515	0.341991
H	-0.243467	-0.299976	2.28997
H	0.457122	1.984	0.908374
C	4.05109	0.46261	0.266222
C	4.82007	-0.35806	1.06391
N	5.97205	-0.705571	0.440469
C	5.91794	-0.102779	-0.739505
N	4.77927	0.613863	-0.892682
H	3.06993	0.933972	0.43559
H	4.56431	-0.705645	2.07812
H	6.68494	-0.152536	-1.5291
H	4.50366	1.17735	-1.73398
