18
  This energy is -0.9935 and Call times are: 156843
C	0.143062	0.382286	-1.0582
C	1.1865	-0.0337298	-0.284548
C	0.614019	-0.435568	0.960807
C	-0.728718	-0.229637	0.838235
O	-1.03407	0.269527	-0.388389
H	0.107231	0.774994	-2.08764
H	2.2524	-0.0554506	-0.56291
H	1.1478	-0.830795	1.83999
H	-1.5611	-0.396048	1.54158
C	6.09864	-0.722108	-0.710829
C	6.16216	0.655029	-0.686269
N	5.33717	1.16542	0.259987
C	4.76403	0.10894	0.820327
N	5.19016	-1.0525	0.269822
H	6.61831	-1.46559	-1.3359
H	6.78848	1.28949	-1.33437
H	4.02525	0.129015	1.63765
H	4.88636	-2.0203	0.53879
