18
  This energy is -1.2564 and Call times are: 68430
C	0.905403	0.648664	-0.214199
C	-0.209429	0.668177	-0.999783
C	-1.11554	-0.269015	-0.416043
C	-0.474429	-0.7785	0.674726
O	0.760955	-0.229246	0.813137
H	1.85524	1.20443	-0.278952
H	-0.376904	1.28105	-1.90002
H	-2.12524	-0.527254	-0.7737
H	-0.785359	-1.52674	1.42219
C	5.72516	-0.564561	-0.857858
C	6.74047	0.356035	-1.00881
N	7.17378	0.807118	0.193384
C	6.4301	0.168789	1.08675
N	5.54158	-0.669743	0.502813
H	5.1398	-1.13331	-1.59773
H	7.16812	0.702838	-1.96364
H	6.4946	0.278007	2.18135
H	4.84548	-1.28314	0.993165
