18
  This energy is -1.0798 and Call times are: 98438
C	-0.991188	-0.262852	0.484619
C	-0.341721	-1.11547	-0.358954
C	0.851236	-0.438351	-0.757056
C	0.825458	0.768264	-0.121613
O	-0.292624	0.892388	0.640947
H	-1.94397	-0.359296	1.03065
H	-0.669805	-2.1204	-0.669701
H	1.632	-0.813912	-1.43783
H	1.53255	1.61396	-0.129502
C	6.10533	-0.697124	-0.500562
C	4.75694	-0.952956	-0.36803
N	4.12522	0.0683918	0.259893
C	5.07808	0.95447	0.515934
N	6.28988	0.539244	0.0769512
H	6.91945	-1.28769	-0.949981
H	4.2286	-1.8562	-0.714241
H	4.94336	1.92377	1.02244
H	7.19716	1.05993	0.160593
