18
  This energy is -1.4575 and Call times are: 32629
C	-0.0105538	0.902757	-0.686527
C	0.586638	-0.272955	-1.03501
C	0.391557	-1.15384	0.0722883
C	-0.307624	-0.438662	0.999671
O	-0.561797	0.819436	0.552908
H	-0.110679	1.85959	-1.22476
H	1.11184	-0.497386	-1.97728
H	0.735436	-2.19705	0.159234
H	-0.679186	-0.707493	2.00213
C	4.49812	1.1565	-0.0914003
C	3.93066	0.336371	-1.04352
N	3.85385	-0.943018	-0.603316
C	4.37169	-0.91669	0.617245
N	4.77481	0.326417	0.971897
H	4.71733	2.23607	-0.0951317
H	3.57529	0.644884	-2.0402
H	4.47981	-1.77899	1.29473
H	5.21437	0.604847	1.88322
