18
  This energy is -0.6762 and Call times are: 193975
C	0.0762334	-0.794396	-0.805931
C	1.15752	-0.377522	-0.0866243
C	0.667564	0.615068	0.81605
C	-0.669881	0.717129	0.56867
O	-1.04818	-0.136427	-0.418923
H	-0.022931	-1.54221	-1.60979
H	2.19598	-0.733301	-0.182109
H	1.25061	1.1819	1.55959
H	-1.45078	1.3504	1.0208
C	6.04737	0.748787	-0.895931
C	5.10004	-0.248269	-0.79806
N	5.21804	-0.921222	0.372291
C	6.23471	-0.343842	0.998094
N	6.76848	0.668582	0.274436
H	6.25256	1.48516	-1.68915
H	4.33351	-0.494122	-1.55095
H	6.62985	-0.622887	1.98816
H	7.5775	1.2766	0.55203
