18
  This energy is -0.4969 and Call times are: 63672
C	-0.295748	-0.835341	0.707912
C	-1.12774	-0.379549	-0.272098
C	-0.410704	0.658066	-0.942422
C	0.796158	0.744748	-0.312864
O	0.883558	-0.159958	0.697523
H	-0.42367	-1.62436	1.46708
H	-2.1444	-0.738052	-0.500089
H	-0.760883	1.26402	-1.79347
H	1.66592	1.39947	-0.486387
C	6.86527	-0.418046	-0.274839
C	6.07619	-0.799078	0.789731
N	4.90894	-0.110708	0.803792
C	4.97365	0.69431	-0.248056
N	6.13368	0.546681	-0.93079
H	7.86238	-0.753929	-0.601171
H	6.32819	-1.55835	1.54792
H	4.19954	1.41196	-0.564234
H	6.42103	1.06783	-1.79514
