18
  This energy is -1.2023 and Call times are: 108710
C	0.576955	-0.850834	0.479173
C	-0.0960515	0.0804152	1.21416
C	-0.686623	0.972884	0.268204
C	-0.322373	0.508226	-0.961344
O	0.449505	-0.604931	-0.851353
H	1.17652	-1.72568	0.779879
H	-0.16927	0.133547	2.3123
H	-1.30877	1.85556	0.48708
H	-0.544531	0.875166	-1.97685
C	4.28292	-0.981781	0.392209
C	3.95806	0.315445	0.728087
N	4.76067	1.20115	0.0894643
C	5.58034	0.456231	-0.639824
N	5.33252	-0.866734	-0.491697
H	3.85572	-1.94648	0.709067
H	3.15892	0.628164	1.41978
H	6.38025	0.828142	-1.30017
H	5.84273	-1.65469	-0.960808
