18
  This energy is -1.0915 and Call times are: 2436
C	0.488297	-1.01849	0.103221
C	1.04761	-0.0108606	-0.626323
C	0.150405	1.09517	-0.517557
C	-0.877977	0.665791	0.26885
O	-0.688044	-0.622741	0.656953
H	0.823642	-2.04938	0.303342
H	1.99678	-0.0432057	-1.18501
H	0.265622	2.09088	-0.975152
H	-1.79101	1.17383	0.620309
C	5.3677	0.812794	0.767631
C	4.57988	-0.285673	1.03941
N	4.34886	-1.01075	-0.0819252
C	4.99091	-0.364565	-1.04569
N	5.62087	0.741608	-0.584044
H	5.75322	1.61341	1.41872
H	4.17404	-0.568013	2.02451
H	5.03256	-0.657768	-2.10707
H	6.19313	1.41645	-1.14829
