18
  This energy is -1.3169 and Call times are: 34843
C	0.31863	0.853041	0.676163
C	0.583315	-0.451785	0.97238
C	0.0331588	-1.21592	-0.101654
C	-0.519151	-0.310586	-0.959384
O	-0.354053	0.957794	-0.500075
H	0.552742	1.78673	1.21344
H	1.11285	-0.837495	1.85833
H	0.0513293	-2.31188	-0.214006
H	-1.05053	-0.440109	-1.91652
C	4.93308	-0.721146	-0.920505
C	3.7713	-0.0953673	-0.520738
N	3.98	0.66427	0.581945
C	5.26635	0.510335	0.865174
N	5.88477	-0.315757	-0.011589
H	5.14295	-1.4035	-1.75948
H	2.78624	-0.178383	-1.0082
H	5.80671	0.979493	1.70311
H	6.89647	-0.594353	-0.000996786
