18
  This energy is -1.2461 and Call times are: 98342
C	-0.447104	-0.696835	0.77519
C	-0.563459	-0.923862	-0.564695
C	0.118742	0.155464	-1.20483
C	0.591757	0.946772	-0.199615
O	0.25541	0.441306	1.01627
H	-0.81449	-1.26246	1.64717
H	-1.07807	-1.76682	-1.05327
H	0.238236	0.315734	-2.2884
H	1.17359	1.88292	-0.218324
C	4.68709	-0.986625	-0.573798
C	3.63341	-0.813458	0.298506
N	3.59927	0.453562	0.778095
C	4.62786	1.0641	0.205491
N	5.31504	0.238065	-0.618546
H	5.02329	-1.86538	-1.14677
H	2.89721	-1.58004	0.59041
H	4.92317	2.11521	0.354457
H	6.16437	0.483746	-1.18383
