18
  This energy is -0.8563 and Call times are: 168154
C	0.653616	-0.926448	-0.0296879
C	0.145874	-0.354262	-1.15892
C	-0.612822	0.773047	-0.718844
C	-0.501732	0.790229	0.640471
O	0.268177	-0.240516	1.07844
H	1.29402	-1.81169	0.116878
H	0.291045	-0.692141	-2.19761
H	-1.17285	1.48299	-1.34847
H	-0.916976	1.47353	1.39937
C	5.56813	0.83418	-0.49279
C	5.12224	0.794249	0.811331
N	4.37381	-0.312507	1.03816
C	4.35546	-0.956728	-0.120831
N	5.06119	-0.305747	-1.07569
H	6.18957	1.56862	-1.0294
H	5.32716	1.5442	1.59264
H	3.84057	-1.90923	-0.325428
H	5.19643	-0.611194	-2.07051
