18
  This energy is -0.6879 and Call times are: 140053
C	0.708156	0.599192	0.652599
C	0.295258	-0.657531	0.98507
C	-0.575046	-1.07452	-0.067929
C	-0.61715	-0.0358054	-0.950918
O	0.160688	0.994752	-0.526733
H	1.38108	1.30689	1.16405
H	0.575439	-1.23316	1.88187
H	-1.10381	-2.03774	-0.149887
H	-1.15516	0.0916935	-1.90461
C	5.44292	0.51748	1.04529
C	4.59336	0.568851	-0.039489
N	5.08755	-0.14311	-1.08131
C	6.23932	-0.634293	-0.644512
N	6.49844	-0.264369	0.632046
H	5.37339	0.966977	2.04861
H	3.63267	1.10688	-0.0890815
H	6.93224	-1.2708	-1.21806
H	7.34258	-0.523734	1.19898
