18
  This energy is -0.8398 and Call times are: 148741
C	-1.13102	0.049259	-0.0691014
C	-0.362037	1.15901	0.124522
C	0.989395	0.697721	0.155471
C	0.926956	-0.6532	-0.021972
O	-0.360304	-1.06636	-0.160806
H	-2.22247	-0.0774793	-0.158139
H	-0.711422	2.19821	0.234519
H	1.89616	1.30815	0.294236
H	1.71589	-1.42178	-0.067947
C	6.78623	0.636446	-0.0858946
C	6.43238	-0.44963	-0.858144
N	5.22613	-0.942057	-0.485312
C	4.83316	-0.164426	0.514431
N	5.73937	0.80237	0.793158
H	7.67914	1.28149	-0.0992301
H	7.02583	-0.886735	-1.67766
H	3.89078	-0.258633	1.0777
H	5.65968	1.53816	1.53715
