18
  This energy is -0.7564 and Call times are: 15954
C	0.965413	-0.546507	-0.236026
C	0.0968312	-0.145175	-1.20807
C	-0.982029	0.49736	-0.52739
C	-0.677484	0.431951	0.800521
O	0.508386	-0.202267	0.99671
H	1.9294	-1.07843	-0.291156
H	0.204999	-0.287341	-2.29535
H	-1.87665	0.952425	-0.981984
H	-1.21463	0.794051	1.69249
C	5.85329	0.619241	-0.758182
C	5.20959	1.09845	0.363043
N	4.54703	0.107194	1.00721
C	4.77883	-0.982816	0.288338
N	5.5614	-0.72619	-0.786517
H	6.47761	1.12361	-1.51275
H	5.21136	2.14168	0.718738
H	4.39984	-1.99479	0.503979
H	5.88428	-1.41995	-1.50464
