18
  This energy is -1.2486 and Call times are: 40809
C	0.554003	-0.655335	-0.741632
C	0.487129	0.700656	-0.872739
C	-0.28389	1.16323	0.23707
C	-0.620111	0.0490689	0.948396
O	-0.116724	-1.07046	0.365077
H	1.0414	-1.42653	-1.36047
H	0.935742	1.31367	-1.6709
H	-0.551934	2.20619	0.470468
H	-1.20551	-0.0785052	1.87375
C	5.48943	-0.654979	-0.576967
C	4.18937	-1.00107	-0.274959
N	3.56288	-0.00621497	0.399045
C	4.47083	0.953406	0.51473
N	5.64905	0.610368	-0.0577274
H	6.28575	-1.20136	-1.10696
H	3.69222	-1.95079	-0.531317
H	4.32576	1.92745	1.00912
H	6.51849	1.19661	-0.0982965
