18
  This energy is -0.9326 and Call times are: 186394
C	0.546928	0.703314	0.701869
C	1.15257	0.133196	-0.379121
C	0.154966	-0.67482	-1.00523
C	-0.97223	-0.52714	-0.251579
O	-0.750943	0.311066	0.795061
H	0.925714	1.39604	1.47122
H	2.19704	0.268114	-0.703104
H	0.272176	-1.29095	-1.91118
H	-1.98151	-0.958691	-0.353397
C	5.42118	-0.736998	0.874179
C	6.49305	0.129319	0.832365
N	6.51002	0.830035	-0.327471
C	5.4527	0.400059	-1.00262
N	4.7637	-0.54519	-0.320438
H	5.09078	-1.45255	1.64383
H	7.25445	0.261308	1.6183
H	5.13681	0.743644	-2.00081
H	3.89429	-1.03805	-0.64056
