18
  This energy is -0.6944 and Call times are: 121490
C	-0.246806	0.381538	1.03919
C	-1.0978	-0.41691	0.333029
C	-0.44427	-0.683055	-0.908817
C	0.748396	-0.0237509	-0.851903
O	0.885641	0.631732	0.330686
H	-0.329674	0.831897	2.04197
H	-2.08656	-0.781854	0.654392
H	-0.825573	-1.29538	-1.74174
H	1.57485	0.0562945	-1.57703
C	5.8436	0.0737766	-1.04122
C	4.61077	-0.490047	-0.78949
N	4.29194	-0.401107	0.524644
C	5.32306	0.215549	1.08603
N	6.28474	0.522653	0.18356
H	6.41903	0.183684	-1.97415
H	3.94563	-0.959424	-1.53254
H	5.42547	0.467031	2.15397
H	7.1933	1.00987	0.379524
