18
  This energy is -0.7573 and Call times are: 138856
C	-0.11501	0.24343	-1.10178
C	-0.896351	-0.680605	-0.472462
C	-0.456362	-0.704467	0.886199
C	0.555008	0.207093	0.967202
O	0.77689	0.795474	-0.237617
H	-0.0949703	0.593972	-2.14675
H	-1.70175	-1.2848	-0.920102
H	-0.85279	-1.33084	1.70142
H	1.18725	0.524435	1.81267
C	6.59638	-0.216848	0.368816
C	6.05295	-0.551928	-0.853292
N	4.76202	-0.149032	-0.941008
C	4.50557	0.433777	0.22226
N	5.57981	0.418405	1.04649
H	7.60105	-0.380051	0.790168
H	6.56921	-1.07718	-1.67331
H	3.54785	0.888381	0.522829
H	5.62895	0.814868	2.01688
