18
  This energy is -0.7101 and Call times are: 142394
C	-0.0591447	-0.357882	-1.07463
C	-0.759463	-0.953219	-0.0669059
C	-0.428118	-0.230375	1.11961
C	0.44543	0.742871	0.732212
O	0.682051	0.679762	-0.60459
H	-0.00333537	-0.5754	-2.1539
H	-1.44101	-1.81494	-0.150696
H	-0.801681	-0.420222	2.13868
H	0.962274	1.53112	1.30387
C	5.30297	-0.0560511	1.17105
C	4.31743	0.592126	0.457094
N	4.50779	0.451258	-0.877233
C	5.60725	-0.281523	-0.990629
N	6.12432	-0.61274	0.216235
H	5.47229	-0.157189	2.25485
H	3.47242	1.1589	0.880867
H	6.07725	-0.604298	-1.93357
H	6.98661	-1.18465	0.391253
