18
  This energy is -0.7648 and Call times are: 120797
C	0.940495	-0.014758	0.63376
C	-0.227493	0.536171	1.07269
C	-1.16522	0.363405	0.00923191
C	-0.487486	-0.277847	-0.985677
O	0.799863	-0.516644	-0.621367
H	1.92866	-0.111453	1.11276
H	-0.410368	1.01608	2.04754
H	-2.21971	0.682729	-0.00438754
H	-0.804079	-0.614929	-1.98637
C	7.43312	-0.350056	-0.928286
C	7.18254	-1.06923	0.221126
N	6.41599	-0.359399	1.08429
C	6.19188	0.795738	0.472693
N	6.78405	0.85031	-0.743835
H	8.00821	-0.599211	-1.83423
H	7.54112	-2.08757	0.443059
H	5.60094	1.63641	0.870557
H	6.75439	1.65392	-1.41807
