18
  This energy is -1.2451 and Call times are: 138479
C	0.179302	-0.965632	0.56728
C	1.05145	-0.496849	-0.37079
C	0.487287	0.723058	-0.854182
C	-0.679808	0.892052	-0.168833
O	-0.883726	-0.129916	0.703526
H	0.200799	-1.86886	1.19892
H	1.99719	-0.963308	-0.690302
H	0.908643	1.39049	-1.623
H	-1.44329	1.6862	-0.209787
C	4.91716	1.02363	0.322699
C	6.17275	0.833857	-0.214536
N	6.40241	-0.477315	-0.468694
C	5.29351	-1.09859	-0.0905706
N	4.36781	-0.237073	0.39364
H	4.39316	1.93616	0.648677
H	6.91705	1.61953	-0.42331
H	5.10634	-2.18307	-0.146391
H	3.41345	-0.482687	0.754373
