18
  This energy is -1.0155 and Call times are: 126975
C	0.793245	-0.651527	-0.482365
C	0.958988	-0.0903699	0.749709
C	-0.237039	0.646527	1.00782
C	-1.02807	0.470625	-0.0893089
O	-0.41463	-0.319412	-1.00938
H	1.45126	-1.29828	-1.08568
H	1.83555	-0.18578	1.41049
H	-0.472178	1.23606	1.90852
H	-2.03421	0.849195	-0.333482
C	6.34982	-0.140057	0.513188
C	5.26685	-0.98914	0.599153
N	4.21835	-0.517963	-0.118579
C	4.64921	0.619101	-0.647794
N	5.92839	0.890932	-0.296535
H	7.35696	-0.194707	0.956146
H	5.22327	-1.93328	1.1662
H	4.06928	1.29181	-1.3
H	6.49181	1.72765	-0.585891
