18
  This energy is -0.9846 and Call times are: 120926
C	-0.337819	-0.603813	-0.898715
C	0.447866	0.504817	-1.01709
C	0.655802	0.980566	0.313532
C	-0.021172	0.120661	1.12756
O	-0.633858	-0.853085	0.404065
H	-0.748576	-1.29292	-1.6548
H	0.841507	0.943562	-1.94802
H	1.24272	1.86152	0.619393
H	-0.142606	0.0935131	2.2229
C	6.31533	-0.343153	0.152899
C	5.29015	-1.08261	-0.39789
N	4.13441	-0.375283	-0.419535
C	4.44143	0.79851	0.11579
N	5.74461	0.867354	0.477148
H	7.37527	-0.584631	0.331119
H	5.36372	-2.11382	-0.780049
H	3.75019	1.64326	0.266847
H	6.22812	1.68675	0.919954
