18
  This energy is -0.7739 and Call times are: 104513
C	0.00074303	1.04786	-0.434044
C	-1.14577	0.418125	-0.0476292
C	-0.743253	-0.863056	0.43886
C	0.613701	-0.903135	0.306787
O	1.0849	0.255533	-0.224691
H	0.176155	2.04645	-0.866821
H	-2.172	0.815899	-0.099929
H	-1.39534	-1.65613	0.838749
H	1.34918	-1.68718	0.550912
C	5.89256	0.882523	-0.672417
C	4.5794	0.601078	-0.360104
N	4.49016	-0.490059	0.438626
C	5.7432	-0.884026	0.62113
N	6.626	-0.0887898	-0.02837
H	6.34203	1.67871	-1.28691
H	3.69475	1.16578	-0.69679
H	6.07054	-1.7484	1.22108
H	7.67023	-0.192401	-0.0392523
