18
  This energy is -1.4475 and Call times are: 25618
C	-0.0606038	-0.0975455	1.12837
C	-0.127388	-1.17698	0.297268
C	-0.016961	-0.65711	-1.0285
C	0.107556	0.694123	-0.89052
O	0.0829029	1.05336	0.419959
H	-0.102626	-0.0170211	2.227
H	-0.242834	-2.23335	0.588582
H	-0.0297651	-1.23025	-1.96947
H	0.219183	1.498	-1.63656
C	4.76467	-0.855313	-0.578518
C	3.58811	-0.973137	0.130696
N	3.22224	0.214597	0.671003
C	4.16821	1.06602	0.298398
N	5.12081	0.469255	-0.456589
H	5.35404	-1.59562	-1.14254
H	2.99669	-1.89388	0.262207
H	4.21223	2.13779	0.550612
H	5.96908	0.928154	-0.870253
