18
  This energy is -1.119 and Call times are: 82724
C	0.225273	0.463595	1.01031
C	-0.0823309	1.2148	-0.0857879
C	-0.297141	0.285477	-1.14896
C	-0.101842	-0.951592	-0.608687
O	0.217938	-0.861641	0.709137
H	0.466208	0.74841	2.04766
H	-0.15107	2.31317	-0.140191
H	-0.565544	0.520042	-2.19156
H	-0.159794	-1.95985	-1.05064
C	3.95521	0.240634	0.485398
C	4.3558	-0.958843	-0.0640843
N	5.62508	-0.881992	-0.532618
C	6.01046	0.360436	-0.274782
N	5.039	1.07729	0.338382
H	3.00723	0.547806	0.954977
H	3.7517	-1.87833	-0.130852
H	6.99338	0.797487	-0.513707
H	5.09981	2.07948	0.643634
