18
  This energy is -0.8118 and Call times are: 114701
C	-0.617051	0.667775	0.678031
C	-1.11185	-0.483794	0.140042
C	-0.0526958	-1.03616	-0.643023
C	0.995845	-0.173377	-0.514426
O	0.668824	0.872941	0.288872
H	-1.07313	1.41852	1.34408
H	-2.12142	-0.902288	0.28053
H	-0.0777807	-1.96808	-1.23039
H	2.01348	-0.191197	-0.937936
C	6.06992	1.09257	0.233517
C	6.8225	0.0550249	-0.274679
N	6.07486	-1.06604	-0.418774
C	4.86307	-0.725258	-0.00155631
N	4.8087	0.566158	0.402027
H	6.33381	2.13356	0.478988
H	7.89155	0.095263	-0.539948
H	3.97913	-1.38245	0.0296137
H	3.96629	1.07035	0.772681
