18
  This energy is -1.714 and Call times are: 200974
C	-0.888649	0.218106	-0.670174
C	-0.335612	-1.02482	-0.571844
C	0.744228	-0.900106	0.354715
C	0.755739	0.408015	0.740799
O	-0.234676	1.10552	0.124702
H	-1.73841	0.595445	-1.26243
H	-0.655945	-1.93788	-1.09891
H	1.4276	-1.69725	0.688875
H	1.40847	0.958875	1.43776
C	4.1165	1.12612	0.191265
C	3.80524	0.371708	-0.920098
N	4.28969	-0.888802	-0.80634
C	4.89916	-0.916274	0.371119
N	4.82259	0.274505	1.01125
H	3.89297	2.17379	0.448092
H	3.2398	0.71435	-1.80198
H	5.41751	-1.78239	0.813159
H	5.22453	0.50508	1.95282
