18
  This energy is -0.7581 and Call times are: 149917
C	-0.967186	0.229012	-0.546356
C	-0.824859	-0.860999	0.261104
C	0.512192	-0.805757	0.760462
C	1.06889	0.313135	0.21407
O	0.179571	0.957251	-0.586706
H	-1.82199	0.592436	-1.14006
H	-1.58514	-1.62709	0.482836
H	0.994687	-1.5205	1.44634
H	2.07446	0.753423	0.315173
C	6.63339	-0.0708036	0.558732
C	6.00181	1.07718	0.129329
N	4.82485	0.789462	-0.477712
C	4.72665	-0.531982	-0.4251
N	5.79235	-1.09699	0.190253
H	7.58992	-0.224973	1.08296
H	6.37428	2.10788	0.246655
H	3.89548	-1.13697	-0.821814
H	5.94822	-2.12156	0.355222
