18
  This energy is -0.3548 and Call times are: 110794
C	-0.0176866	-1.13368	-0.0292349
C	-0.249867	-0.428815	1.11516
C	-0.142771	0.949007	0.754248
C	0.1454	0.964478	-0.578828
O	0.225499	-0.298756	-1.07364
H	0.00247149	-2.21765	-0.228866
H	-0.474059	-0.83807	2.11333
H	-0.267417	1.82043	1.41696
H	0.314573	1.79761	-1.28063
C	5.50729	0.576573	-0.837469
C	5.39348	-0.758777	-0.513383
N	6.22727	-1.08769	0.50304
C	6.85595	0.0393207	0.808355
N	6.45674	1.07168	0.0283267
H	4.99686	1.18913	-1.59759
H	4.72467	-1.49078	-0.994753
H	7.61793	0.16456	1.59444
H	6.80427	2.06081	0.0743269
