18
  This energy is -0.8535 and Call times are: 75383
C	1.12027	-0.119169	0.131139
C	0.218871	-0.795569	0.899474
C	-1.07053	-0.386556	0.440932
C	-0.843248	0.50368	-0.567133
O	0.489126	0.678918	-0.769821
H	2.22265	-0.118709	0.126974
H	0.439787	-1.51079	1.70802
H	-2.04811	-0.7216	0.823271
H	-1.53495	1.07324	-1.20931
C	5.46805	0.337778	1.11964
C	6.37369	-0.581458	0.633875
N	6.24889	-0.728489	-0.707512
C	5.26955	0.0963972	-1.0526
N	4.76605	0.762181	0.0136185
H	5.27971	0.707621	2.14007
H	7.11491	-1.14122	1.22725
H	4.88135	0.25182	-2.0721
H	3.98898	1.46733	0.000287762
