18
  This energy is -0.9011 and Call times are: 95277
C	0.0342581	-0.436605	-1.04623
C	-1.08256	0.16106	-0.54038
C	-0.738563	0.576861	0.782077
C	0.5581	0.19658	0.967616
O	1.04591	-0.423802	-0.138811
H	0.234013	-0.90379	-2.02454
H	-2.05142	0.295622	-1.04762
H	-1.38768	1.09791	1.50405
H	1.23649	0.307939	1.82938
C	5.69487	-0.947315	0.0696004
C	5.56731	-0.0917293	-1.00411
N	4.67683	0.894963	-0.739542
C	4.25357	0.652416	0.493603
N	4.83783	-0.447699	1.02462
H	6.31422	-1.84636	0.216756
H	6.10185	-0.168706	-1.96493
H	3.51664	1.24861	1.05549
H	4.66994	-0.844459	1.98151
