18
  This energy is -0.7892 and Call times are: 85239
C	0.848823	-0.625316	0.418187
C	-0.335059	-0.46707	1.07679
C	-1.13572	0.374063	0.245184
C	-0.370423	0.655568	-0.848185
O	0.844695	0.0534154	-0.759234
H	1.76045	-1.18807	0.678005
H	-0.616315	-0.899299	2.05053
H	-2.16117	0.723661	0.445955
H	-0.572835	1.26317	-1.74546
C	5.90758	1.06933	-0.445566
C	6.83567	0.0780425	-0.206514
N	6.24748	-1.02724	0.312047
C	4.9594	-0.722788	0.394383
N	4.70364	0.530384	-0.0502949
H	6.01509	2.08623	-0.855323
H	7.91915	0.140551	-0.398919
H	4.16031	-1.3805	0.77269
H	3.76672	1.00165	-0.0869707
