18
  This energy is -1.6276 and Call times are: 88655
C	0.34012	0.543683	-0.935482
C	-0.665629	-0.377513	-0.950952
C	-0.799401	-0.833002	0.396176
C	0.136411	-0.149938	1.11593
O	0.841395	0.695223	0.318619
H	0.786405	1.15242	-1.73892
H	-1.25426	-0.703571	-1.82347
H	-1.51238	-1.58243	0.775801
H	0.396566	-0.174965	2.18689
C	4.04755	-0.366023	1.1173
C	3.47559	-0.973756	0.0197328
N	3.73673	-0.279647	-1.11452
C	4.46792	0.75476	-0.722099
N	4.68283	0.747583	0.614819
H	4.04746	-0.638114	2.18478
H	2.87917	-1.90063	0.0259475
H	4.87203	1.54735	-1.37228
H	5.22928	1.45546	1.16396
