18
  This energy is -0.8143 and Call times are: 21958
C	0.770758	0.744946	0.370659
C	-0.521007	1.09815	0.111879
C	-1.17173	-0.0945967	-0.328633
C	-0.220161	-1.07137	-0.300155
O	0.972169	-0.576358	0.124487
H	1.63158	1.33278	0.729384
H	-0.970545	2.09827	0.220316
H	-2.2261	-0.203115	-0.629649
H	-0.264747	-2.14312	-0.55436
C	5.8517	-0.45829	0.933111
C	4.67159	0.254789	0.937372
N	4.32431	0.632374	-0.316956
C	5.28532	0.155353	-1.0964
N	6.22966	-0.510092	-0.390009
H	6.42999	-0.917232	1.75072
H	4.06451	0.503585	1.82304
H	5.34666	0.264521	-2.19119
H	7.08651	-0.976608	-0.776586
