18
  This energy is -0.817 and Call times are: 103744
C	-0.998566	0.465813	-0.26886
C	0.175438	1.1549	-0.354002
C	1.19433	0.244259	0.0615721
C	0.553019	-0.920918	0.363979
O	-0.786687	-0.803564	0.167948
H	-2.03767	0.762008	-0.48747
H	0.310399	2.19966	-0.677043
H	2.27635	0.442586	0.124804
H	0.931612	-1.89179	0.7236
C	5.66127	-1.16787	0.131969
C	4.96991	-0.28019	0.928957
N	5.11817	0.991946	0.486011
C	5.89854	0.893835	-0.581708
N	6.25295	-0.387991	-0.836478
H	5.77044	-2.26283	0.183709
H	4.36678	-0.534858	1.81565
H	6.24108	1.72897	-1.21373
H	6.86234	-0.723759	-1.62207
