18
  This energy is -2.0096 and Call times are: 195954
C	-0.383401	0.968858	0.448015
C	0.335408	0.0635003	1.1719
C	0.63226	-1.00736	0.274538
C	0.0686472	-0.66185	-0.9185
O	-0.55575	0.542075	-0.83072
H	-0.823227	1.94142	0.723575
H	0.627311	0.141891	2.2315
H	1.20008	-1.92432	0.500039
H	0.0418615	-1.17928	-1.89154
C	3.9924	-1.14963	-0.162531
C	3.57584	-0.238322	-1.1097
N	3.45639	1.00145	-0.575641
C	3.79756	0.859791	0.698
N	4.12913	-0.418715	0.996456
H	4.19448	-2.2305	-0.229012
H	3.35934	-0.453167	-2.16886
H	3.82195	1.65942	1.45578
H	4.43255	-0.783649	1.93242
