18
  This energy is -1.4205 and Call times are: 187398
C	-0.692336	-0.887412	0.139901
C	0.579171	-1.02078	-0.335342
C	1.12455	0.298905	-0.3687
C	0.138166	1.12222	0.0891032
O	-0.978479	0.414588	0.404345
H	-1.48252	-1.63147	0.332853
H	1.08255	-1.95478	-0.632594
H	2.13484	0.591547	-0.696958
H	0.106816	2.21437	0.235641
C	4.96386	-0.203823	-1.14747
C	5.33273	0.924805	-0.44656
N	4.98971	0.822151	0.860464
C	4.41025	-0.365643	0.969975
N	4.37036	-1.023	-0.213191
H	5.07791	-0.473042	-2.20957
H	5.84022	1.81133	-0.860528
H	3.99742	-0.80333	1.89314
H	3.96461	-1.97526	-0.38591
