18
  This energy is -0.7179 and Call times are: 50184
C	-0.903065	-0.52862	0.437534
C	-1.0184	0.519961	-0.427076
C	0.317389	0.909005	-0.750242
C	1.13108	0.0638191	-0.0545869
O	0.402604	-0.820683	0.676157
H	-1.66336	-1.1438	0.946214
H	-1.95061	0.97394	-0.799881
H	0.626783	1.7246	-1.42343
H	2.2294	-0.0100479	0.00443855
C	5.01333	0.693512	0.534114
C	6.04349	1.09302	-0.29069
N	6.75627	0.0286154	-0.732832
C	6.17053	-1.02721	-0.184407
N	5.1146	-0.678709	0.588352
H	4.24109	1.26938	1.06849
H	6.2852	2.13022	-0.574671
H	6.47409	-2.07836	-0.315385
H	4.49174	-1.32978	1.12631
