18
  This energy is -0.8444 and Call times are: 187462
C	0.986977	-0.382894	-0.407025
C	0.726971	0.947205	-0.253383
C	-0.597041	1.02815	0.276294
C	-1.02924	-0.259631	0.399572
O	-0.0746215	-1.13449	-0.0131581
H	1.87677	-0.915467	-0.781045
H	1.40002	1.78709	-0.489371
H	-1.15465	1.94327	0.532636
H	-1.98168	-0.679578	0.762544
C	6.10593	0.911263	0.546556
C	4.8305	0.428578	0.750119
N	4.57646	-0.634047	-0.0516294
C	5.69005	-0.809916	-0.749919
N	6.64211	0.0967595	-0.425705
H	6.65176	1.74879	1.00933
H	4.08905	0.828028	1.46113
H	5.86207	-1.58735	-1.51165
H	7.60521	0.166058	-0.836675
