18
  This energy is -1.0357 and Call times are: 97609
C	0.363484	0.70552	0.81026
C	-0.345878	-0.425224	1.09062
C	-0.61749	-1.03906	-0.17016
C	-0.0501287	-0.229232	-1.10966
O	0.553281	0.840965	-0.528636
H	0.784713	1.4856	1.46546
H	-0.647602	-0.790419	2.08545
H	-1.17168	-1.97481	-0.347209
H	-0.00682044	-0.303237	-2.2087
C	4.73092	1.04205	0.281389
C	4.11583	0.0155388	-0.4035
N	4.95077	-1.04137	-0.552956
C	6.07954	-0.671931	0.0369703
N	5.99741	0.576222	0.555582
H	4.36908	2.03787	0.582999
H	3.08455	0.0185956	-0.792478
H	6.99717	-1.2766	0.117979
H	6.75431	1.09101	1.06877
