18
  This energy is -0.9352 and Call times are: 59454
C	-0.610232	-0.286034	-0.912251
C	-0.954677	-0.676005	0.348564
C	0.0417744	-0.128497	1.21311
C	0.907173	0.547715	0.404285
O	0.524298	0.462042	-0.896899
H	-1.08336	-0.47297	-1.89024
H	-1.82331	-1.28784	0.640506
H	0.0993359	-0.231427	2.30864
H	1.82051	1.12258	0.629228
C	4.52345	-0.174932	-0.4422
C	4.84642	0.0762128	0.874524
N	6.18423	0.227355	1.02923
C	6.68928	0.0705718	-0.186902
N	5.72828	-0.174062	-1.10897
H	3.55385	-0.348425	-0.935469
H	4.13811	0.151062	1.71568
H	7.75589	0.12485	-0.458268
H	5.87335	-0.332821	-2.13611
