18
  This energy is -1.4328 and Call times are: 205896
C	-0.244582	-1.08686	-0.212863
C	-0.652643	-0.455719	0.925346
C	-0.158218	0.880906	0.829976
C	0.508332	0.948562	-0.358092
O	0.465694	-0.244193	-1.00812
H	-0.393055	-2.11927	-0.569723
H	-1.24263	-0.888032	1.74943
H	-0.288642	1.69098	1.56542
H	1.0478	1.77594	-0.84765
C	3.54568	-0.794686	0.153945
C	4.27689	-0.164553	1.13853
N	5.18019	0.692376	0.603523
C	5.01001	0.594232	-0.707976
N	4.03587	-0.289621	-1.02961
H	2.73812	-1.54186	0.209897
H	4.16886	-0.312886	2.22535
H	5.57188	1.14686	-1.47813
H	3.71512	-0.542054	-1.99639
