18
  This energy is -1.0421 and Call times are: 9460
C	0.178421	-0.868507	-0.707292
C	-0.221413	-1.04858	0.58425
C	-0.336562	0.260434	1.14402
C	0.00307194	1.12487	0.145135
O	0.320456	0.452647	-0.992581
H	0.393058	-1.58917	-1.51341
H	-0.415766	-2.00705	1.09184
H	-0.637943	0.518677	2.17192
H	0.0574915	2.22557	0.117882
C	5.48743	0.636374	0.0714463
C	4.30105	1.01342	-0.521417
N	3.3708	0.0332262	-0.419664
C	3.97776	-0.948177	0.233838
N	5.25565	-0.633047	0.552106
H	6.44818	1.16396	0.181641
H	4.09965	1.97516	-1.02076
H	3.53282	-1.91899	0.505448
H	5.93956	-1.24008	1.06693
