18
  This energy is -0.7825 and Call times are: 203845
C	0.948195	0.542878	-0.304318
C	0.160233	-0.111703	-1.20488
C	-0.922312	-0.659888	-0.451416
C	-0.700313	-0.291902	0.843063
O	0.437677	0.44314	0.951244
H	1.88506	1.11028	-0.429169
H	0.324806	-0.199698	-2.29082
H	-1.76396	-1.25742	-0.837018
H	-1.2697	-0.487244	1.76658
C	4.6932	-0.395575	0.0600478
C	5.77485	-0.850113	0.784319
N	6.90031	-0.167404	0.46219
C	6.51831	0.70734	-0.458421
N	5.19646	0.609504	-0.7354
H	3.63621	-0.705864	0.0545755
H	5.76334	-1.65844	1.53354
H	7.16573	1.44273	-0.962687
H	4.65762	1.1889	-1.42476
