18
  This energy is -0.5642 and Call times are: 196691
C	0.998615	0.336876	-0.419146
C	0.256692	-0.648143	-1.00195
C	-0.914372	-0.784559	-0.195653
C	-0.784691	0.12914	0.808692
O	0.377718	0.822829	0.687808
H	1.97189	0.777206	-0.691346
H	0.508781	-1.22119	-1.90869
H	-1.75078	-1.4844	-0.352937
H	-1.44083	0.379661	1.65838
C	6.87993	0.695698	-0.356127
C	6.8617	-0.107479	0.764461
N	5.68628	-0.773795	0.86899
C	4.978	-0.385459	-0.182751
N	5.65404	0.500322	-0.952137
H	7.65272	1.36998	-0.75821
H	7.67562	-0.218119	1.49941
H	3.95895	-0.718534	-0.437344
H	5.30992	0.952169	-1.83456
