18
  This energy is -3.0921 and Call times are: 185242
C	-0.184173	1.1105	0.13885
C	0.214431	0.302548	1.16292
C	0.338262	-1.00574	0.603294
C	0.00439782	-0.88177	-0.713346
O	-0.317422	0.403854	-1.01437
H	-0.403576	2.19021	0.102346
H	0.402401	0.598194	2.2076
H	0.641331	-1.92613	1.12781
H	-0.042708	-1.6224	-1.52851
C	3.823	-1.0598	-0.430337
C	4.99849	-0.702166	0.195343
N	4.97846	0.601599	0.564538
C	3.79505	1.05108	0.169399
N	3.06128	0.087344	-0.435906
H	3.48588	-2.0175	-0.857766
H	5.86069	-1.36152	0.386987
H	3.41494	2.07731	0.298217
H	2.09603	0.193731	-0.833671
