18
  This energy is -0.9944 and Call times are: 117948
C	-0.271993	-0.701906	-0.84838
C	-0.969475	0.442538	-0.595119
C	-0.333859	1.04637	0.532489
C	0.695929	0.217609	0.868752
O	0.74853	-0.855106	0.0359695
H	-0.399957	-1.48097	-1.61776
H	-1.84385	0.823321	-1.14699
H	-0.617435	1.9884	1.02872
H	1.45236	0.278717	1.66833
C	4.91323	-1.09517	-0.374477
C	5.23055	0.0783418	-1.02512
N	4.83843	1.15755	-0.305349
C	4.27998	0.655461	0.787658
N	4.30052	-0.698474	0.793172
H	5.07469	-2.14933	-0.650537
H	5.7354	0.165647	-2.001
H	3.84025	1.23422	1.61585
H	3.92184	-1.32639	1.5439
