18
  This energy is -1.185 and Call times are: 8691
C	0.721191	0.704031	0.520216
C	-0.428748	1.14074	-0.0691037
C	-1.0583	-0.0227168	-0.607759
C	-0.237497	-1.06769	-0.300052
O	0.854042	-0.642103	0.388736
H	1.5177	1.24389	1.05815
H	-0.796753	2.17811	-0.119447
H	-2.01147	-0.0667727	-1.15878
H	-0.316949	-2.14666	-0.511603
C	4.11992	1.06246	-0.160574
C	4.00401	-0.0320522	-0.991084
N	4.68728	-1.09369	-0.498552
C	5.22502	-0.659432	0.633208
N	4.91222	0.634497	0.881195
H	3.70838	2.08162	-0.234699
H	3.43961	-0.0747289	-1.93685
H	5.85642	-1.24725	1.3188
H	5.21548	1.20332	1.70928
