18
  This energy is -0.4949 and Call times are: 74614
C	0.160125	0.354694	1.06534
C	1.07607	-0.41012	0.404677
C	0.523995	-0.649605	-0.890691
C	-0.680579	-0.00999591	-0.907255
O	-0.918949	0.608621	0.279128
H	0.158427	0.776804	2.08371
H	2.04344	-0.76958	0.790794
H	0.978212	-1.23166	-1.70861
H	-1.45043	0.078895	-1.69126
C	5.84052	0.915769	0.333983
C	5.39083	-0.31427	-0.0972093
N	6.42627	-1.13375	-0.401878
C	7.51419	-0.414822	-0.160611
N	7.21387	0.828112	0.284938
H	5.2985	1.81721	0.661343
H	4.3378	-0.625117	-0.193934
H	8.55558	-0.749722	-0.293179
H	7.89705	1.58148	0.543719
