18
  This energy is -0.875 and Call times are: 210648
C	0.592073	0.908932	-0.331198
C	-0.658293	1.00727	0.204796
C	-1.06731	-0.330948	0.491129
C	-0.0307846	-1.12892	0.104834
O	0.991048	-0.388426	-0.399683
H	1.29267	1.67687	-0.698188
H	-1.23476	1.92965	0.380871
H	-2.02396	-0.652439	0.933348
H	0.100705	-2.22298	0.136248
C	5.44471	0.497503	-0.763539
C	4.71231	-0.655172	-0.953456
N	3.95658	-0.93883	0.135089
C	4.21916	0.0341708	0.997033
N	5.11062	0.925159	0.502038
H	6.15628	1.02609	-1.41761
H	4.71564	-1.28722	-1.85642
H	3.78631	0.142506	2.00457
H	5.47741	1.77905	0.989468
