18
  This energy is -1.571 and Call times are: 115653
C	-0.174386	1.1079	0.168972
C	-0.0823443	0.217648	1.19822
C	0.135363	-1.05794	0.593574
C	0.157141	-0.834576	-0.751791
O	-0.0304493	0.482596	-1.02906
H	-0.338628	2.19792	0.157623
H	-0.159972	0.437193	2.27519
H	0.260093	-2.02404	1.10853
H	0.295817	-1.51941	-1.60445
C	3.69187	-0.88836	0.581129
C	3.62973	-0.643217	-0.7743
N	4.33273	0.467861	-1.10264
C	4.8291	0.910318	0.0447357
N	4.47107	0.126819	1.0895
H	3.25143	-1.68675	1.19929
H	3.09023	-1.24815	-1.5212
H	5.46112	1.80328	0.176673
H	4.73649	0.266142	2.09518
