18
  This energy is -0.7986 and Call times are: 96325
C	-1.01646	0.0813153	-0.49659
C	-0.830061	0.331767	0.831154
C	0.562144	0.126982	1.07599
C	1.1036	-0.230533	-0.123749
O	0.15387	-0.263468	-1.09531
H	-1.92042	0.11318	-1.12674
H	-1.5961	0.630728	1.56457
H	1.09015	0.235596	2.03698
H	2.13676	-0.483607	-0.41323
C	5.00306	0.410377	0.762603
C	5.04481	-0.851373	0.208178
N	6.10096	-0.981676	-0.630916
C	6.71209	0.194765	-0.597172
N	6.08856	1.0682	0.228611
H	4.30111	0.871341	1.47557
H	4.33179	-1.67003	0.398585
H	7.61991	0.47044	-1.15761
H	6.37706	2.05793	0.424717
