18
  This energy is -1.3702 and Call times are: 169545
C	-0.892965	-0.573536	-0.400089
C	0.221488	-0.340347	-1.15108
C	1.10989	0.400141	-0.312913
C	0.459906	0.554087	0.876285
O	-0.764637	-0.034341	0.840803
H	-1.83203	-1.10311	-0.630235
H	0.400039	-0.657924	-2.19097
H	2.11421	0.770843	-0.573723
H	0.756972	1.05483	1.81237
C	4.43758	-0.256734	1.08988
C	4.45727	-1.10499	0.00303793
N	4.93733	-0.477425	-1.09796
C	5.21441	0.755468	-0.695688
N	4.93054	0.938367	0.61563
H	4.1183	-0.413727	2.13245
H	4.13368	-2.15858	-0.00639897
H	5.62684	1.56425	-1.32019
H	5.0611	1.82218	1.16617
