18
  This energy is -1.7475 and Call times are: 142994
C	0.864599	0.723261	-0.125546
C	0.981914	-0.608937	-0.393608
C	-0.299402	-1.1773	-0.119188
C	-1.0866	-0.14225	0.292343
O	-0.39198	1.02587	0.294509
H	1.59146	1.54934	-0.192824
H	1.88059	-1.13829	-0.748942
H	-0.591698	-2.23494	-0.21945
H	-2.14257	-0.106998	0.606893
C	6.75084	0.293022	1.13004
C	7.94562	0.0295097	0.49426
N	7.74751	-0.276071	-0.811069
C	6.43482	-0.202413	-0.984424
N	5.7895	0.137367	0.156495
H	6.52423	0.571023	2.17162
H	8.94704	0.0544065	0.954032
H	5.89352	-0.387508	-1.92621
H	4.75411	0.259049	0.276582
