18
  This energy is -0.9665 and Call times are: 44200
C	-0.146271	1.09716	-0.247483
C	-0.754262	0.501419	0.818264
C	-0.330459	-0.862436	0.798054
C	0.4991	-0.979731	-0.278258
O	0.622977	0.207339	-0.928283
H	-0.179585	2.13304	-0.623118
H	-1.43309	0.974893	1.54567
H	-0.615362	-1.65666	1.50667
H	1.05547	-1.84152	-0.682013
C	5.3865	0.150342	-1.06104
C	4.58567	-0.897542	-0.65886
N	4.19946	-0.750002	0.631716
C	4.75858	0.385095	1.02867
N	5.48452	0.965897	0.044154
H	5.87722	0.366203	-2.0234
H	4.27963	-1.7574	-1.27679
H	4.66896	0.837001	2.02966
H	6.02001	1.86598	0.110166
