18
  This energy is -1.2662 and Call times are: 173316
C	0.467211	-0.797697	0.65711
C	-0.449574	0.0941637	1.13089
C	-0.796937	0.924289	0.0216759
C	-0.0617571	0.466424	-1.03201
O	0.715895	-0.584918	-0.661939
H	1.00941	-1.62077	1.15091
H	-0.841871	0.16079	2.15839
H	-1.51211	1.76251	0.018174
H	-0.00288283	0.798393	-2.08157
C	4.29305	0.83103	0.828145
C	3.63748	0.936733	-0.380244
N	3.73114	-0.214354	-1.08929
C	4.4421	-1.03105	-0.323677
N	4.80469	-0.447323	0.843104
H	4.42721	1.55102	1.65104
H	3.0986	1.82295	-0.753179
H	4.726	-2.06713	-0.568983
H	5.36821	-0.885139	1.61254
