18
  This energy is -0.5906 and Call times are: 67822
C	1.11898	-0.0410454	0.180534
C	0.218652	0.0751178	1.19851
C	-1.06928	0.0930955	0.581251
C	-0.842297	-0.0136693	-0.75944
O	0.488535	-0.0966084	-1.02215
H	2.22009	-0.0941088	0.180862
H	0.439343	0.141488	2.27601
H	-2.04572	0.176176	1.085
H	-1.53323	-0.0417185	-1.61797
C	6.74137	0.287229	-0.77116
C	6.36287	-0.984072	-0.394757
N	5.35935	-0.945836	0.515187
C	5.11622	0.344279	0.702576
N	5.92344	1.12849	-0.0504181
H	7.50927	0.641008	-1.47735
H	6.7959	-1.92821	-0.763458
H	4.35817	0.769825	1.3797
H	5.92578	2.17749	-0.0796277
