18
  This energy is -1.0557 and Call times are: 86313
C	-0.60964	-0.646042	-0.705245
C	0.178508	0.375476	-1.14762
C	0.775426	0.942454	0.0195697
C	0.299353	0.217358	1.07217
O	-0.547863	-0.756913	0.647864
H	-1.25491	-1.35824	-1.24529
H	0.324854	0.697435	-2.19119
H	1.4766	1.79142	0.0609064
H	0.484635	0.294051	2.15616
C	5.74179	-0.763345	-0.502135
C	5.65764	0.59112	-0.746033
N	4.68968	1.16445	0.00951956
C	4.17529	0.169438	0.719442
N	4.77584	-1.01321	0.44691
H	6.39879	-1.54115	-0.922733
H	6.27802	1.16494	-1.45364
H	3.35743	0.251367	1.45335
H	4.54887	-1.94328	0.876683
