18
  This energy is -1.2725 and Call times are: 67918
C	-0.0458665	0.886969	-0.705396
C	-1.06168	0.582653	0.152444
C	-0.638322	-0.582328	0.862165
C	0.598827	-0.887075	0.375373
O	0.976344	-0.000186505	-0.582709
H	0.0694739	1.69737	-1.44377
H	-2.01362	1.12422	0.273319
H	-1.19675	-1.12361	1.64272
H	1.30323	-1.69763	0.624503
C	4.18731	-1.07922	-0.223735
C	5.0424	-0.340101	-1.01346
N	5.31141	0.862539	-0.449718
C	4.62581	0.869477	0.685416
N	3.93173	-0.278896	0.867295
H	3.75694	-2.08456	-0.356499
H	5.47006	-0.653055	-1.9799
H	4.59651	1.68986	1.4205
H	3.31617	-0.514671	1.68385
