18
  This energy is -0.7156 and Call times are: 111166
C	-0.96673	-0.582994	0.109319
C	-0.946344	0.751353	-0.172593
C	0.432978	1.11779	-0.230144
C	1.13371	-0.024983	0.0216796
O	0.294837	-1.07349	0.2313
H	-1.80255	-1.28858	0.246458
H	-1.81543	1.41138	-0.324752
H	0.845962	2.11841	-0.435796
H	2.21708	-0.220705	0.0787416
C	5.16567	0.704963	-0.590656
C	5.10712	-0.670276	-0.510442
N	6.11265	-1.15828	0.255897
C	6.79241	-0.0898539	0.649602
N	6.26108	1.05773	0.165532
H	4.52666	1.43326	-1.11485
H	4.35735	-1.31912	-0.991794
H	7.68705	-0.0909978	1.29292
H	6.61596	2.03081	0.334139
