18
  This energy is -1.0015 and Call times are: 81460
C	-1.0915	0.228943	0.206409
C	-0.274882	-0.338155	1.14017
C	1.00311	-0.466884	0.51544
C	0.854633	0.0329128	-0.744929
O	-0.418235	0.46235	-0.950847
H	-2.15618	0.512595	0.241864
H	-0.545326	-0.635949	2.16597
H	1.92055	-0.884331	0.960565
H	1.56816	0.137451	-1.57872
C	6.11798	-0.613227	-0.860666
C	4.77738	-0.609923	-0.538297
N	4.52889	0.212368	0.509846
C	5.71084	0.71727	0.836474
N	6.70107	0.250319	0.0396027
H	6.67959	-1.15104	-1.64098
H	3.98499	-1.18613	-1.04322
H	5.90782	1.43309	1.65074
H	7.71904	0.49877	0.096691
