18
  This energy is -1.2888 and Call times are: 89199
C	0.788756	0.805878	-0.121763
C	1.10759	-0.496052	0.130615
C	-0.135886	-1.19356	0.21641
C	-1.10482	-0.256296	0.0088859
O	-0.55807	0.970379	-0.199304
H	1.41957	1.6985	-0.265119
H	2.11715	-0.922459	0.244901
H	-0.28213	-2.2683	0.410442
H	-2.20419	-0.334186	-0.0150946
C	5.72684	0.127509	1.16308
C	6.7202	-0.149159	0.247749
N	6.21867	-0.228116	-1.00873
C	4.9191	-0.00129212	-0.873402
N	4.57298	0.218711	0.417096
H	5.75832	0.261479	2.25605
H	7.78981	-0.293217	0.471455
H	4.17542	0.0152337	-1.68636
H	3.60926	0.420345	0.780204
