18
  This energy is -1.0236 and Call times are: 54492
C	0.289916	0.999089	-0.451853
C	-0.880004	0.815428	0.224852
C	-0.883982	-0.552829	0.634699
C	0.283858	-1.0845	0.172266
O	1.01309	-0.150815	-0.493657
H	0.717981	1.88767	-0.944222
H	-1.66177	1.56797	0.416213
H	-1.66944	-1.07207	1.20701
H	0.706389	-2.09971	0.250158
C	6.28587	-0.930615	0.711353
C	5.45616	0.168769	0.647435
N	5.88606	1.05174	-0.286401
C	6.97832	0.502225	-0.799856
N	7.2612	-0.69379	-0.231426
H	6.2524	-1.83459	1.34005
H	4.55504	0.340669	1.2584
H	7.60906	0.932791	-1.59421
H	8.06951	-1.32116	-0.464486
