18
  This energy is -1.9035 and Call times are: 81782
C	-0.201417	0.817048	0.760437
C	-0.24595	1.0433	-0.583884
C	0.0586014	-0.208164	-1.2013
C	0.262356	-1.08869	-0.179769
O	0.107598	-0.479635	1.02527
H	-0.368124	1.48634	1.62038
H	-0.470713	1.9959	-1.08997
H	0.116916	-0.418787	-2.28127
H	0.519402	-2.16069	-0.178896
C	4.35202	-1.00699	0.257545
C	3.72688	-0.685977	-0.928746
N	3.19411	0.559094	-0.878999
C	3.48763	1.00877	0.333543
N	4.18507	0.101434	1.05736
H	4.88607	-1.91547	0.578483
H	3.65071	-1.33045	-1.81965
H	3.21606	1.99514	0.742898
H	4.53244	0.219772	2.04051
