18
  This energy is -1.4547 and Call times are: 8308
C	-0.158407	0.415304	-1.04347
C	0.460506	1.12884	-0.0595063
C	0.469832	0.282034	1.09069
C	-0.144205	-0.87422	0.708057
O	-0.534312	-0.810293	-0.592228
H	-0.389201	0.664265	-2.09228
H	0.869453	2.14914	-0.135976
H	0.887447	0.515233	2.08332
H	-0.362022	-1.80351	1.25963
C	4.95718	-0.967788	-0.566479
C	3.74946	-0.319609	-0.716179
N	3.67257	0.76373	0.0943599
C	4.82819	0.787535	0.744425
N	5.63719	-0.23575	0.3811
H	5.36719	-1.86814	-1.05104
H	2.9322	-0.614233	-1.39451
H	5.13376	1.53197	1.4972
H	6.59915	-0.433757	0.750805
