18
  This energy is -1.6906 and Call times are: 84855
C	-0.600152	-0.0664897	-0.960103
C	0.177393	-1.09368	-0.512134
C	0.764437	-0.636739	0.707169
C	0.293803	0.629345	0.896663
O	-0.540911	0.993814	-0.112012
H	-1.23564	0.0328207	-1.8554
H	0.322953	-2.07474	-0.992162
H	1.45565	-1.19308	1.36047
H	0.475134	1.36445	1.69791
C	3.54551	0.764409	-0.265735
C	4.34516	0.774732	0.857475
N	5.22586	-0.255098	0.839759
C	4.97354	-0.901839	-0.290146
N	3.9688	-0.3262	-0.992085
H	2.73231	1.43365	-0.588791
H	4.30239	1.50681	1.68033
H	5.49461	-1.80279	-0.652117
H	3.58531	-0.649155	-1.91398
