18
  This energy is -1.158 and Call times are: 140695
C	-0.950613	0.405733	0.46703
C	0.0965349	1.21028	0.125629
C	1.09131	0.345166	-0.424016
C	0.564241	-0.911675	-0.369974
O	-0.682203	-0.893325	0.171369
H	-1.92907	0.632577	0.92136
H	0.161889	2.30332	0.248524
H	2.0813	0.634078	-0.812011
H	0.969917	-1.88856	-0.68042
C	5.65837	0.966273	0.133993
C	5.04302	0.239413	1.13107
N	4.36419	-0.815657	0.618686
C	4.55769	-0.743607	-0.691273
N	5.33149	0.31357	-1.03362
H	6.28486	1.87161	0.171453
H	5.07669	0.457376	2.21098
H	4.15576	-1.43913	-1.44556
H	5.62626	0.584412	-2.00367
