18
  This energy is -1.3348 and Call times are: 64545
C	-0.0801574	1.12495	0.120294
C	1.00193	0.527257	-0.456105
C	0.735985	-0.875765	-0.425735
C	-0.485134	-1.01159	0.166543
O	-0.998117	0.200155	0.506458
H	-0.314153	2.18506	0.311778
H	1.89755	1.02449	-0.861956
H	1.38442	-1.68263	-0.803356
H	-1.08916	-1.90364	0.400284
C	5.31059	1.03375	0.236096
C	4.81823	0.612856	-0.9811
N	4.29682	-0.634841	-0.892248
C	4.46507	-0.986643	0.375249
N	5.07193	-0.0145075	1.09655
H	5.79768	1.9737	0.540713
H	4.82988	1.18711	-1.92182
H	4.16243	-1.94448	0.828228
H	5.31442	-0.0521498	2.11686
