18
  This energy is -1.318 and Call times are: 45036
C	0.395713	-0.886985	-0.585722
C	-0.260939	0.148543	-1.1831
C	-0.597328	1.05615	-0.132769
C	-0.116543	0.495132	1.01374
O	0.49292	-0.69188	0.755731
H	0.836668	-1.80886	-0.999183
H	-0.48587	0.261892	-2.25579
H	-1.13493	2.01312	-0.229176
H	-0.143641	0.836104	2.06171
C	4.5252	0.174771	-1.1571
C	3.58799	0.755504	-0.32913
N	3.73239	0.327195	0.94845
C	4.75529	-0.516042	0.913193
N	5.26772	-0.642013	-0.333861
H	4.71013	0.28138	-2.23782
H	2.81019	1.47587	-0.630714
H	5.17032	-1.06859	1.77149
H	6.07654	-1.24668	-0.619241
