18
  This energy is -1.2499 and Call times are: 183120
C	0.643152	0.305861	0.882726
C	0.984487	-0.71978	0.0509051
C	-0.0580845	-0.797415	-0.922304
C	-0.944484	0.187638	-0.599285
O	-0.532051	0.871355	0.500461
H	1.14511	0.725668	1.76988
H	1.88055	-1.35768	0.116102
H	-0.131083	-1.50747	-1.7617
H	-1.89316	0.499424	-1.06625
C	5.47974	0.0354943	-1.02359
C	4.62636	0.995443	-0.522204
N	4.13248	0.627698	0.685007
C	4.6774	-0.555889	0.931605
N	5.49752	-0.956466	-0.0686602
H	6.0564	-0.0104098	-1.96108
H	4.35817	1.9468	-1.0099
H	4.51014	-1.17263	1.82932
H	6.043	-1.85206	-0.109057
