18
  This energy is -1.5975 and Call times are: 165604
C	-0.871334	0.360541	-0.630229
C	-0.387076	1.07693	0.424596
C	0.69214	0.307661	0.957171
C	0.772105	-0.810908	0.18078
O	-0.175204	-0.795197	-0.793576
H	-1.6957	0.561897	-1.33389
H	-0.753121	2.04952	0.790903
H	1.32922	0.565217	1.8185
H	1.44937	-1.67992	0.218147
C	4.58225	-0.874433	-0.778842
C	5.19905	0.341133	-0.986436
N	5.15149	1.10993	0.128551
C	4.50763	0.374107	1.02445
N	4.14355	-0.831005	0.525708
H	4.42954	-1.73848	-1.44491
H	5.67754	0.677196	-1.92076
H	4.27588	0.669295	2.06049
H	3.62574	-1.58804	1.03564
