18
  This energy is -1.2185 and Call times are: 148837
C	0.0108494	-1.05445	0.417627
C	-0.752781	-0.701923	-0.656135
C	-0.499536	0.686295	-0.877127
C	0.396493	1.05954	0.0810985
O	0.71923	0.00897572	0.880583
H	0.136601	-2.01647	0.941042
H	-1.42679	-1.35403	-1.23455
H	-0.938155	1.32452	-1.66095
H	0.87461	2.02909	0.297025
C	4.13176	0.352941	0.711819
C	5.46278	0.703477	0.793368
N	6.18477	0.112693	-0.189597
C	5.30499	-0.601633	-0.878333
N	4.05316	-0.489842	-0.374334
H	3.26388	0.6342	1.32925
H	5.91509	1.37209	1.54386
H	5.52375	-1.2248	-1.7604
H	3.18762	-0.956302	-0.741095
