18
  This energy is -1.1866 and Call times are: 44040
C	-0.507369	0.0314037	-1.0139
C	0.783874	0.430737	-0.830599
C	1.05702	0.245129	0.559026
C	-0.0914198	-0.251243	1.10223
O	-1.05726	-0.388163	0.15597
H	-1.14124	-0.00241983	-1.91519
H	1.4747	0.817236	-1.59706
H	2.00174	0.459106	1.08421
H	-0.345233	-0.543322	2.13447
C	4.53588	0.481922	-0.843674
C	4.66552	-0.860819	-0.558393
N	5.51402	-1.06018	0.479301
C	5.90927	0.154263	0.836419
N	5.34742	1.11807	0.0689635
H	3.94331	1.0121	-1.60612
H	4.16202	-1.68932	-1.08273
H	6.60896	0.394723	1.65302
H	5.50079	2.1528	0.153123
