18
  This energy is -2.1175 and Call times are: 14941
C	0.753401	-0.721022	-0.445999
C	0.199478	-0.912655	0.785594
C	-0.686074	0.188902	0.991719
C	-0.595126	0.956438	-0.132109
O	0.279461	0.415665	-1.02075
H	1.4868	-1.31288	-1.01791
H	0.394878	-1.74611	1.47933
H	-1.31379	0.379336	1.87705
H	-1.09389	1.89729	-0.41722
C	4.22003	1.01345	-0.357259
C	5.51747	0.594496	-0.562854
N	5.72932	-0.62659	-0.0146017
C	4.56772	-0.963879	0.529048
N	3.62557	-0.00801743	0.349428
H	3.69519	1.93545	-0.653932
H	6.30449	1.15142	-1.09696
H	4.35213	-1.89911	1.07042
H	2.63162	-0.0391161	0.684633
