18
  This energy is -0.6648 and Call times are: 130048
C	-0.766305	0.156583	-0.821376
C	-0.890752	-0.826444	0.115931
C	0.252101	-0.704983	0.964019
C	0.97404	0.341545	0.4701
O	0.36679	0.879529	-0.620236
H	-1.40741	0.441311	-1.67177
H	-1.70559	-1.56319	0.201528
H	0.499532	-1.32884	1.83791
H	1.9231	0.795274	0.799738
C	5.60074	0.898985	0.753039
C	4.8371	-0.24881	0.729366
N	5.225	-1.07317	-0.273861
C	6.22549	-0.439202	-0.870295
N	6.49024	0.754365	-0.288146
H	5.575	1.77911	1.41504
H	4.01319	-0.496881	1.4182
H	6.79925	-0.803736	-1.73756
H	7.23181	1.43913	-0.575238
