18
  This energy is -1.1641 and Call times are: 202095
C	-0.0176504	-0.558462	-0.987021
C	0.646337	-1.02988	0.107174
C	0.437922	-0.0629813	1.13761
C	-0.335027	0.913937	0.58213
O	-0.622711	0.627651	-0.714901
H	-0.134071	-0.967644	-2.00401
H	1.22485	-1.96472	0.181248
H	0.822719	-0.0990969	2.16946
H	-0.741437	1.8501	0.998885
C	5.10418	0.893085	-0.651254
C	5.1158	0.800516	0.724406
N	4.56923	-0.367781	1.14016
C	4.21985	-0.997597	0.0266519
N	4.52147	-0.27846	-1.08035
H	5.45754	1.68338	-1.33251
H	5.50878	1.55579	1.42439
H	3.73979	-1.98751	-0.0353242
H	4.34505	-0.559752	-2.07585
