18
  This energy is -0.8208 and Call times are: 36910
C	-0.877442	0.0599997	0.716168
C	-0.599522	1.0474	-0.182823
C	0.561087	0.61377	-0.893507
C	0.889944	-0.600328	-0.366069
O	0.0220738	-0.95404	0.618157
H	-1.67561	-0.038835	1.4701
H	-1.15598	1.98686	-0.330669
H	1.0834	1.15018	-1.70193
H	1.70665	-1.30251	-0.600988
C	4.61327	-0.946463	0.133037
C	5.21379	-0.516905	-1.03143
N	5.93564	0.610698	-0.821784
C	5.78351	0.879652	0.467846
N	4.99479	-0.0300824	1.08743
H	3.9631	-1.81059	0.343083
H	5.13914	-1.00041	-2.01911
H	6.22752	1.73012	1.00987
H	4.72526	-0.0361861	2.10162
