18
  This energy is -0.7134 and Call times are: 95213
C	-0.742513	0.420705	0.747049
C	0.591282	0.699642	0.806706
C	1.1867	-0.00192831	-0.285722
C	0.164189	-0.647651	-0.91651
O	-1.02113	-0.40071	-0.299212
H	-1.58541	0.740569	1.38144
H	1.10439	1.33564	1.54584
H	2.25324	-0.0180379	-0.561988
H	0.149746	-1.30395	-1.80212
C	7.26986	-0.127942	0.0118415
C	6.38943	-0.651936	-0.910874
N	5.1122	-0.305425	-0.619103
C	5.19995	0.430736	0.480439
N	6.48006	0.566984	0.900365
H	8.36599	-0.198053	0.0962524
H	6.65291	-1.27381	-1.78191
H	4.35814	0.89447	1.01946
H	6.80836	1.10037	1.74237
