18
  This energy is -0.8877 and Call times are: 108229
C	-0.68473	-0.369768	0.825117
C	-1.15855	0.0598911	-0.379568
C	-0.00970922	0.438974	-1.1389
C	1.06473	0.207502	-0.331203
O	0.670952	-0.286508	0.872086
H	-1.20231	-0.753773	1.71949
H	-2.21144	0.105324	-0.701215
H	0.00523771	0.836761	-2.16634
H	2.14564	0.350953	-0.493368
C	4.86321	-0.913667	-0.51202
C	5.6286	-0.93998	0.634556
N	6.09414	0.295594	0.93974
C	5.61937	1.08542	-0.0138815
N	4.87105	0.403604	-0.913173
H	4.33126	-1.71247	-1.05284
H	5.85324	-1.82836	1.24706
H	5.78908	2.17066	-0.10157
H	4.38872	0.802446	-1.75552
