18
  This energy is -0.9274 and Call times are: 123679
C	-1.05054	0.421718	0.0701259
C	-0.806578	-0.914657	-0.0521729
C	0.614246	-1.04907	-0.109698
C	1.1131	0.217027	-0.0174741
O	0.11046	1.12781	0.0929661
H	-1.99264	0.988688	0.149174
H	-1.55234	-1.72453	-0.0973465
H	1.18913	-1.98389	-0.208342
H	2.14794	0.59697	-0.0184673
C	4.84594	-0.136004	0.893304
C	4.8142	-0.785462	-0.322567
N	5.83727	-0.38629	-1.1166
C	6.50118	0.507404	-0.396071
N	5.94293	0.693408	0.823501
H	4.18749	-0.203117	1.77391
H	4.07143	-1.53491	-0.641092
H	7.40284	1.05575	-0.713165
H	6.2813	1.34525	1.57308
