18
  This energy is -0.9649 and Call times are: 120123
C	-0.720826	-0.773275	0.410921
C	-0.451442	0.393744	1.06351
C	0.487551	1.09198	0.244444
C	0.709081	0.290012	-0.83636
O	-0.0207384	-0.853282	-0.751184
H	-1.38279	-1.61725	0.665397
H	-0.871795	0.729238	2.0252
H	0.939986	2.07649	0.444815
H	1.35363	0.417568	-1.72153
C	4.28007	0.00777847	0.361663
C	5.17077	-1.04106	0.449579
N	6.37752	-0.701781	-0.0653478
C	6.236	0.552772	-0.471167
N	4.98922	1.02579	-0.235796
H	3.2269	0.0987467	0.671638
H	4.96429	-2.03653	0.875332
H	7.0132	1.17213	-0.947182
H	4.63102	1.98522	-0.464801
