18
  This energy is -1.2508 and Call times are: 109543
C	0.179512	0.525284	0.989067
C	0.0359891	-0.827915	0.896186
C	-0.170948	-1.10495	-0.489653
C	-0.135614	0.103419	-1.1213
O	0.0775099	1.11008	-0.23348
H	0.356017	1.18403	1.85518
H	0.0722094	-1.5578	1.72084
H	-0.327075	-2.09232	-0.953123
H	-0.247041	0.376704	-2.18344
C	5.19487	-0.329711	-0.802849
C	4.83752	0.960637	-0.473532
N	3.88939	0.973091	0.494662
C	3.65942	-0.304671	0.764958
N	4.42192	-1.12961	0.00887939
H	5.92031	-0.722257	-1.53304
H	5.24684	1.88285	-0.917191
H	2.94312	-0.691904	1.50739
H	4.42392	-2.17867	0.0358806
