18
  This energy is -0.7585 and Call times are: 23644
C	-1.12725	-0.0762506	0.0994427
C	-0.500921	-0.0507119	-1.11193
C	0.895326	0.0496582	-0.828139
C	0.998964	0.0765935	0.531606
O	-0.226514	0.000604916	1.11422
H	-2.19371	-0.145824	0.36976
H	-0.974617	-0.0978259	-2.10566
H	1.71943	0.0958377	-1.55808
H	1.87524	0.146675	1.19679
C	4.99713	-0.386502	-0.139218
C	5.99553	-0.373193	-1.09009
N	7.14347	0.141333	-0.586098
C	6.8583	0.446064	0.672648
N	5.5765	0.146757	0.990448
H	3.95026	-0.726372	-0.184966
H	5.90814	-0.725632	-2.13076
H	7.55101	0.8905	1.40536
H	5.11246	0.293045	1.92024
