18
  This energy is -0.8811 and Call times are: 46329
C	-0.0770925	-0.70272	-0.886928
C	1.11794	-0.224883	-0.435337
C	0.807846	0.614765	0.677744
C	-0.549311	0.575903	0.808081
O	-1.10602	-0.223917	-0.139218
H	-0.325667	-1.38087	-1.71974
H	2.11755	-0.441909	-0.844955
H	1.51922	1.17819	1.30273
H	-1.22935	1.06605	1.52401
C	6.00939	0.726882	0.830141
C	4.93927	-0.135634	0.939961
N	4.7464	-0.824035	-0.211305
C	5.69326	-0.390234	-1.03222
N	6.4806	0.545645	-0.450994
H	6.45412	1.43326	1.54902
H	4.30291	-0.273548	1.82927
H	5.85526	-0.724254	-2.06972
H	7.29485	1.03916	-0.892224
