18
  This energy is -0.9048 and Call times are: 77234
C	0.0467312	1.05389	-0.41656
C	0.842176	0.0484985	-0.882199
C	0.495149	-1.1091	-0.120853
C	-0.481724	-0.708911	0.742824
O	-0.768052	0.609126	0.576073
H	-0.034272	2.11495	-0.704393
H	1.59753	0.115341	-1.68162
H	0.927947	-2.11824	-0.212603
H	-1.04558	-1.25854	1.51433
C	4.53713	-0.504422	0.0309475
C	5.44008	-0.412662	1.06893
N	6.56613	0.234039	0.681271
C	6.36254	0.542303	-0.592363
N	5.15362	0.118547	-1.03115
H	3.53299	-0.953955	-0.0252031
H	5.29921	-0.801502	2.0906
H	7.06562	1.07776	-1.25054
H	4.76078	0.241193	-1.99649
