18
  This energy is -1.2522 and Call times are: 201839
C	0.673741	-0.802199	0.434684
C	-0.162351	-1.0411	-0.616149
C	-0.834328	0.193521	-0.869676
C	-0.34955	1.07789	0.0486113
O	0.572412	0.486782	0.853338
H	1.38154	-1.45677	0.969296
H	-0.292805	-1.9914	-1.15837
H	-1.58938	0.390788	-1.64754
H	-0.576745	2.14117	0.230466
C	4.97194	0.456857	-0.976551
C	4.80348	-0.880511	-0.686351
N	4.22598	-1.04801	0.528119
C	4.03687	0.180775	0.989589
N	4.47013	1.12317	0.119081
H	5.39914	0.964631	-1.85587
H	5.08831	-1.72755	-1.33152
H	3.5854	0.447354	1.95878
H	4.43119	2.16324	0.253218
