18
  This energy is -1.1413 and Call times are: 174532
C	0.59725	0.396822	0.878763
C	-0.279591	1.17431	0.180882
C	-0.827519	0.331498	-0.833793
C	-0.23714	-0.886616	-0.666391
O	0.635835	-0.864814	0.37498
H	1.24537	0.620115	1.74209
H	-0.51675	2.23492	0.362407
H	-1.57397	0.608725	-1.5954
H	-0.351408	-1.83601	-1.21488
C	4.91423	0.621973	-0.975883
C	5.37815	-0.642807	-0.682194
N	4.93581	-1.05621	0.530216
C	4.20027	-0.0517196	0.986936
N	4.15627	0.983677	0.115381
H	5.0648	1.26866	-1.85489
H	6.02412	-1.26445	-1.3234
H	3.67152	-0.0219078	1.95326
H	3.64263	1.88941	0.246041
