18
  This energy is -1.2645 and Call times are: 91863
C	0.828969	-0.771848	-0.0588445
C	1.07835	0.55401	0.14187
C	-0.198355	1.19429	0.155612
C	-1.1152	0.203177	-0.0379181
O	-0.505398	-1.00408	-0.17085
H	1.50501	-1.63881	-0.140128
H	2.06261	1.03308	0.267633
H	-0.40078	2.2685	0.294147
H	-2.21557	0.227104	-0.100081
C	4.72462	0.33877	1.09293
C	4.49579	-0.897782	0.52749
N	4.94185	-0.940338	-0.751468
C	5.44548	0.265228	-0.978596
N	5.33836	1.07308	0.102832
H	4.50159	0.734943	2.09634
H	4.01684	-1.76	1.01946
H	5.90493	0.609622	-1.91909
H	5.66131	2.06905	0.173581
