18
  This energy is -1.2866 and Call times are: 77538
C	0.377272	0.296941	1.02757
C	-0.85862	-0.245913	0.831978
C	-0.964663	-0.480699	-0.572924
C	0.215788	-0.060595	-1.11183
O	1.04715	0.417307	-0.14878
H	0.890641	0.635469	1.9425
H	-1.61929	-0.459576	1.59998
H	-1.8239	-0.912595	-1.11077
H	0.581609	-0.0487494	-2.15168
C	4.09899	0.156151	0.93236
C	4.23658	0.999278	-0.14993
N	5.13196	0.508477	-1.04095
C	5.54826	-0.634781	-0.513429
N	4.95487	-0.891743	0.676299
H	3.47346	0.225387	1.83649
H	3.70582	1.95293	-0.303838
H	6.28637	-1.32276	-0.95628
H	5.11608	-1.7296	1.28726
