18
  This energy is -1.4827 and Call times are: 129185
C	0.0510394	0.547468	-0.992006
C	-0.642217	-0.616627	-0.834995
C	-0.471385	-0.992041	0.532484
C	0.311183	-0.0242151	1.0904
O	0.639564	0.92389	0.173738
H	0.200682	1.19649	-1.87043
H	-1.2163	-1.15677	-1.60491
H	-0.886683	-1.88113	1.03363
H	0.698521	0.102461	2.11469
C	3.46589	-0.847293	0.35814
C	3.88576	-0.60748	-0.933115
N	4.73147	0.450234	-0.98344
C	4.83585	0.865021	0.271822
N	4.09161	0.115067	1.11874
H	2.78868	-1.60926	0.775681
H	3.59363	-1.1787	-1.82933
H	5.44356	1.7131	0.626321
H	4.00731	0.242441	2.15698
