18
  This energy is -0.8059 and Call times are: 148581
C	0.261947	-1.10299	0.0344472
C	-0.47976	-0.559518	-0.972964
C	-0.594361	0.831104	-0.66775
C	0.0874325	1.01466	0.499229
O	0.616889	-0.155977	0.942294
H	0.600646	-2.13593	0.217687
H	-0.903653	-1.08516	-1.84366
H	-1.12477	1.59804	-1.25475
H	0.266676	1.91663	1.10714
C	7.80705	0.522309	-0.53809
C	7.86456	-0.315493	0.555494
N	6.62746	-0.73745	0.913353
C	5.80563	-0.163601	0.0450767
N	6.46853	0.605986	-0.850404
H	8.59755	1.04738	-1.09751
H	8.77651	-0.623055	1.0927
H	4.70944	-0.272973	0.019657
H	6.04377	1.16072	-1.63342
