18
  This energy is -1.3628 and Call times are: 95181
C	0.921597	0.122228	0.649708
C	-0.337825	0.0704383	1.17081
C	-1.21626	-0.0866316	0.0555577
C	-0.416097	-0.11696	-1.04861
O	0.892543	0.00929986	-0.704328
H	1.90742	0.235406	1.12991
H	-0.619941	0.136243	2.23391
H	-2.31488	-0.166822	0.082034
H	-0.652535	-0.22233	-2.12017
C	4.22861	-0.401936	-0.947127
C	4.94505	0.77207	-0.849323
N	5.47338	0.920296	0.389792
C	5.08617	-0.157656	1.05816
N	4.33337	-0.985603	0.29567
H	3.67025	-0.848459	-1.78521
H	5.0902	1.51481	-1.65065
H	5.32572	-0.390636	2.10819
H	3.91016	-1.89827	0.59432
