18
  This energy is -0.9603 and Call times are: 110538
C	-0.479339	-0.666031	-0.782968
C	-1.21369	0.114903	0.0603871
C	-0.267716	0.795238	0.886461
C	0.961196	0.369989	0.474985
O	0.850799	-0.522711	-0.543794
H	-0.780285	-1.35878	-1.58595
H	-2.31141	0.203028	0.0970877
H	-0.486158	1.51573	1.69099
H	1.97648	0.623862	0.8214
C	6.0311	0.354829	1.07218
C	6.82441	0.267327	-0.0521667
N	6.11531	-0.179933	-1.1169
C	4.88677	-0.369179	-0.654842
N	4.78479	-0.06087	0.659744
H	6.25769	0.672889	2.10224
H	7.89572	0.518904	-0.114185
H	4.02386	-0.732084	-1.23615
H	3.92091	-0.126075	1.25196
