18
  This energy is -1.0467 and Call times are: 184024
C	-0.705069	0.686922	0.563398
C	-0.626986	-0.650213	0.820975
C	0.356747	-1.16472	-0.0777281
C	0.792969	-0.0965768	-0.805154
O	0.155204	1.04235	-0.426861
H	-1.3243	1.48245	1.00943
H	-1.20422	-1.21734	1.56881
H	0.693885	-2.21008	-0.165227
H	1.54251	-0.0169386	-1.60958
C	4.2926	-0.598593	0.109211
C	5.57073	-1.09837	0.242442
N	6.49721	-0.127977	0.0513779
C	5.7965	0.969623	-0.199431
N	4.46259	0.737828	-0.175868
H	3.30698	-1.08322	0.194254
H	5.84099	-2.14175	0.473008
H	6.20984	1.96975	-0.407096
H	3.70266	1.442	-0.342934
