18
  This energy is -1.7594 and Call times are: 72988
C	-0.295632	-1.03183	-0.366523
C	0.265782	-0.0982448	-1.18726
C	0.492158	1.05298	-0.372683
C	0.0490964	0.721276	0.873928
O	-0.435299	-0.548326	0.895908
H	-0.635863	-2.06292	-0.557124
H	0.49727	-0.209154	-2.25881
H	0.934062	2.01213	-0.68708
H	0.0238468	1.292	1.81674
C	3.36185	-0.817485	-0.119677
C	3.95241	-0.403704	1.05556
N	4.88089	0.555979	0.824379
C	4.86639	0.73687	-0.489277
N	3.96718	-0.0679353	-1.10352
H	2.57976	-1.56728	-0.318874
H	3.72517	-0.780433	2.06615
H	5.49361	1.44582	-1.05339
H	3.76889	-0.112453	-2.13306
