18
  This energy is -1.1973 and Call times are: 28895
C	0.515093	-0.262683	0.975745
C	-0.11722	0.93016	0.781633
C	-0.633394	0.887011	-0.549465
C	-0.27094	-0.32839	-1.05126
O	0.431092	-1.04364	-0.133338
H	1.05517	-0.670785	1.84581
H	-0.210773	1.75745	1.50339
H	-1.20672	1.67419	-1.06495
H	-0.449069	-0.79653	-2.03328
C	5.59528	-0.906613	0.282368
C	5.99403	0.37466	-0.0346171
N	4.92751	1.16476	-0.308062
C	3.87112	0.376638	-0.161274
N	4.2213	-0.882163	0.194233
H	6.17276	-1.80414	0.55532
H	7.03218	0.743144	-0.0709123
H	2.81835	0.670122	-0.301857
H	3.57019	-1.68631	0.369362
