18
  This energy is -0.5476 and Call times are: 72636
C	1.00125	-0.00792868	-0.532758
C	0.811937	-0.611899	0.675444
C	-0.557432	-0.387924	1.01423
C	-1.08404	0.333142	-0.0168449
O	-0.146167	0.574218	-0.970416
H	1.89256	0.0773096	-1.17584
H	1.56141	-1.16014	1.26859
H	-1.08078	-0.72798	1.92229
H	-2.09807	0.73002	-0.188531
C	7.26042	-0.802712	-0.0204471
C	7.3833	0.53424	0.293565
N	6.18702	1.16626	0.216315
C	5.32528	0.224981	-0.144249
N	5.92367	-0.979751	-0.299617
H	8.0048	-1.61363	-0.0635648
H	8.31371	1.05412	0.574478
H	4.2445	0.363484	-0.308469
H	5.45803	-1.87761	-0.57943
