18
  This energy is -0.7342 and Call times are: 99896
C	0.974905	-0.367237	0.448439
C	-0.104933	-1.18335	0.280273
C	-1.12304	-0.369375	-0.303688
C	-0.575481	0.872294	-0.440823
O	0.70525	0.891762	0.0134476
H	1.97927	-0.559158	0.860347
H	-0.177269	-2.25141	0.541266
H	-2.1417	-0.680846	-0.585483
H	-0.987714	1.81294	-0.84144
C	6.08934	0.825143	-0.478586
C	5.1425	0.060216	-1.1263
N	4.53263	-0.792663	-0.267718
C	5.09896	-0.557731	0.908164
N	6.04389	0.409272	0.833349
H	6.76957	1.60982	-0.846142
H	4.8885	0.108446	-2.19775
H	4.85941	-1.06524	1.85647
H	6.6302	0.772928	1.62408
