18
  This energy is -0.858 and Call times are: 109639
C	-0.454254	0.819463	-0.639168
C	0.589636	1.04823	0.208376
C	0.873674	-0.20758	0.826736
C	-0.0217182	-1.0929	0.302476
O	-0.840408	-0.482805	-0.594485
H	-1.00466	1.49045	-1.31893
H	1.10767	2.00531	0.380821
H	1.65572	-0.417773	1.57394
H	-0.176918	-2.16926	0.483103
C	4.82273	-0.0763651	0.880404
C	4.89768	0.916419	-0.0734856
N	5.91634	0.687921	-0.937557
C	6.47124	-0.442319	-0.521296
N	5.84786	-0.942428	0.57181
H	4.13537	-0.222958	1.72869
H	4.23498	1.79349	-0.153716
H	7.33614	-0.947802	-0.980267
H	6.09783	-1.82228	1.08623
