18
  This energy is -0.7977 and Call times are: 85673
C	0.949079	0.486069	-0.386506
C	0.866528	-0.850314	-0.126428
C	-0.465596	-1.07702	0.336355
C	-1.07949	0.140837	0.318223
O	-0.230263	1.10691	-0.120565
H	1.77917	1.10847	-0.759077
H	1.66373	-1.60113	-0.248248
H	-0.90659	-2.03856	0.644687
H	-2.10291	0.447798	0.589567
C	6.59941	-0.667673	-0.670915
C	6.99464	0.259225	0.270253
N	5.92374	0.846657	0.85728
C	4.86817	0.286317	0.282474
N	5.22305	-0.63329	-0.64595
H	7.1808	-1.32731	-1.33454
H	8.03333	0.514634	0.536242
H	3.81266	0.512454	0.503857
H	4.57348	-1.21018	-1.23461
