18
  This energy is -0.7015 and Call times are: 125513
C	0.780824	0.783318	-0.251252
C	-0.513763	0.882125	-0.669172
C	-1.17792	-0.276102	-0.161711
C	-0.230567	-0.98044	0.521514
O	0.971569	-0.348051	0.477192
H	1.65075	1.44299	-0.403967
H	-0.956589	1.68962	-1.27411
H	-2.23808	-0.545173	-0.294971
H	-0.284757	-1.93233	1.07488
C	6.49103	0.386467	-0.213043
C	5.32766	1.12506	-0.259782
N	4.25062	0.359866	0.04186
C	4.74396	-0.848837	0.274843
N	6.09024	-0.88442	0.133945
H	7.54076	0.665982	-0.396044
H	5.24613	2.19637	-0.50575
H	4.16397	-1.74377	0.552221
H	6.71055	-1.72079	0.26421
