18
  This energy is -0.6197 and Call times are: 138206
C	-0.606541	0.485691	-0.826204
C	0.73774	0.280124	-0.931214
C	1.13445	-0.344099	0.290704
C	-0.00242761	-0.464882	1.03454
O	-1.07523	0.0367417	0.367857
H	-1.33392	0.935389	-1.52187
H	1.38505	0.541812	-1.78363
H	2.1505	-0.662623	0.574055
H	-0.177823	-0.883731	2.03906
C	7.36285	0.127606	-0.489038
C	7.01015	-0.76184	0.503752
N	5.70064	-0.636602	0.829356
C	5.2427	0.326875	0.0415584
N	6.20655	0.819858	-0.771799
H	8.32283	0.310826	-0.997376
H	7.6771	-1.49169	0.990934
H	4.20994	0.710459	0.0191167
H	6.09439	1.58385	-1.48242
