18
  This energy is -0.6937 and Call times are: 18706
C	-0.306586	-0.821997	-0.718837
C	0.830932	-0.893598	0.030363
C	0.870225	0.310527	0.797603
C	-0.246751	1.01165	0.449523
O	-0.977008	0.33487	-0.475517
H	-0.744072	-1.51913	-1.45223
H	1.56837	-1.71223	0.0415949
H	1.64419	0.611123	1.52198
H	-0.629565	1.98994	0.783669
C	7.05509	0.0050291	0.521389
C	6.66712	0.755069	-0.568594
N	5.37979	0.498222	-0.905229
C	4.97069	-0.407713	-0.0274225
N	5.94436	-0.737931	0.853777
H	8.0111	-0.0507393	1.06588
H	7.29302	1.47694	-1.11814
H	3.96815	-0.863018	0.0153891
H	5.86775	-1.42837	1.64034
