18
  This energy is -2.6706 and Call times are: 17316
C	-0.251281	0.65053	0.894466
C	-0.583786	1.00204	-0.38078
C	-0.106351	-0.0546931	-1.21474
C	0.475762	-0.958675	-0.375491
O	0.396359	-0.544081	0.916337
H	-0.41704	1.1573	1.85933
H	-1.11225	1.91399	-0.701974
H	-0.191041	-0.124968	-2.31109
H	0.974307	-1.92225	-0.570994
C	3.60706	-0.131315	1.06059
C	4.86875	-0.535587	0.678712
N	5.10994	-0.224467	-0.618032
C	4.00208	0.370553	-1.03902
N	3.066	0.450921	-0.0638841
H	3.07372	-0.21399	2.02093
H	5.60935	-1.04618	1.31563
H	3.82308	0.766498	-2.05165
H	2.11018	0.875812	-0.148343
