18
  This energy is -1.7188 and Call times are: 81149
C	-0.0447005	0.541812	-0.995411
C	-0.697887	0.995038	0.11288
C	-0.403849	0.0584236	1.15038
C	0.403063	-0.884472	0.584508
O	0.632749	-0.605024	-0.725516
H	0.0163662	0.939425	-2.02178
H	-1.32396	1.8983	0.191879
H	-0.756617	0.0911112	2.19373
H	0.873254	-1.79007	1.00173
C	4.35015	0.774741	0.884525
C	5.18545	0.82271	-0.21143
N	4.97386	-0.233545	-1.03366
C	4.01096	-0.934122	-0.450019
N	3.60112	-0.367407	0.709485
H	4.23943	1.45002	1.74782
H	5.93699	1.60054	-0.423598
H	3.56881	-1.86972	-0.82869
H	2.85493	-0.729152	1.3526
