18
  This energy is -0.9877 and Call times are: 79483
C	0.207704	-0.102472	1.1103
C	-0.955299	0.424242	0.630326
C	-0.843802	0.385801	-0.793123
C	0.377491	-0.161011	-1.05734
O	1.03326	-0.465223	0.093497
H	0.5639	-0.27103	2.13984
H	-1.80633	0.80195	1.21955
H	-1.59119	0.727779	-1.52698
H	0.888824	-0.383056	-2.00839
C	4.38174	-0.310603	-0.667398
C	5.67505	-0.0888057	-1.09084
N	6.47677	0.254291	-0.0535181
C	5.68385	0.245376	1.00941
N	4.41084	-0.0891717	0.691392
H	3.47304	-0.600669	-1.21846
H	6.04404	-0.170197	-2.12625
H	5.98375	0.476045	2.04434
H	3.60043	-0.165359	1.35372
