18
  This energy is -1.1148 and Call times are: 143570
C	-0.490464	0.991027	-0.252413
C	-0.969308	-0.19959	-0.714488
C	-0.0973202	-1.20183	-0.189819
C	0.837407	-0.535187	0.546558
O	0.612586	0.804861	0.519362
H	-0.839942	2.02617	-0.399397
H	-1.84839	-0.356351	-1.36004
H	-0.165892	-2.29016	-0.347699
H	1.70121	-0.89456	1.1296
C	4.27859	0.688605	0.724408
C	4.63218	-0.627465	0.934365
N	5.34866	-1.11324	-0.108321
C	5.43921	-0.102371	-0.961886
N	4.81005	1.00645	-0.505518
H	3.7055	1.39782	1.34257
H	4.38314	-1.23519	1.81952
H	5.95472	-0.11982	-1.93563
H	4.74037	1.93193	-0.995293
