18
  This energy is -1.0429 and Call times are: 159179
C	-0.132883	0.954095	0.598703
C	0.652987	0.893768	-0.514465
C	0.566936	-0.453373	-0.981288
C	-0.263923	-1.09734	-0.112179
O	-0.700626	-0.252928	0.85904
H	-0.367141	1.78512	1.2841
H	1.2349	1.71548	-0.961963
H	1.06887	-0.883816	-1.86269
H	-0.617913	-2.14073	-0.0763207
C	5.97341	0.720174	-0.517953
C	6.11345	0.0959716	0.703483
N	5.02828	-0.662887	0.991672
C	4.21811	-0.51004	-0.0470286
N	4.74282	0.314613	-0.984164
H	6.64014	1.40155	-1.06998
H	6.97805	0.179576	1.38196
H	3.22891	-0.979005	-0.172627
H	4.29712	0.59216	-1.89278
