18
  This energy is -1.3659 and Call times are: 49476
C	-0.648639	0.546735	-0.752827
C	-0.0833862	-0.665529	-1.01981
C	0.647927	-1.02294	0.153887
C	0.465011	0.0024728	1.03448
O	-0.324227	0.969718	0.497315
H	-1.29353	1.20247	-1.36059
H	-0.172477	-1.24949	-1.94994
H	1.23859	-1.9391	0.314692
H	0.837675	0.160915	2.0598
C	5.3259	0.464633	0.80142
C	5.41034	-0.790805	0.237604
N	4.4075	-0.996063	-0.65048
C	3.70361	0.127765	-0.637655
N	4.21701	1.03957	0.221775
H	5.95545	0.972651	1.54917
H	6.1769	-1.55217	0.455705
H	2.80332	0.33615	-1.2379
H	3.84182	2.00126	0.410581
