18
  This energy is -1.423 and Call times are: 40937
C	-0.157492	-0.983007	-0.543411
C	-0.754802	-0.704711	0.650803
C	-0.318666	0.607168	1.0098
C	0.50666	1.01473	0.00326645
O	0.616514	0.0560207	-0.953714
H	-0.202099	-1.87216	-1.19353
H	-1.43436	-1.35773	1.22165
H	-0.592835	1.17353	1.91432
H	1.06889	1.95093	-0.147354
C	4.07494	0.477302	-0.690324
C	5.43807	0.664742	-0.779157
N	6.09137	-0.0386415	0.177376
C	5.13716	-0.660078	0.857031
N	3.90381	-0.381252	0.372592
H	3.24233	0.880661	-1.28833
H	5.96186	1.2949	-1.5163
H	5.28615	-1.33108	1.7183
H	2.9911	-0.749023	0.737222
