18
  This energy is -1.1317 and Call times are: 15389
C	-0.954362	0.330662	-0.516001
C	-0.255758	-0.772689	-0.90963
C	0.867086	-0.858539	-0.031013
C	0.755515	0.199929	0.821965
O	-0.351098	0.936846	0.54023
H	-1.88292	0.783677	-0.900466
H	-0.506028	-1.45743	-1.73582
H	1.66049	-1.62307	-0.0405388
H	1.38929	0.533494	1.66001
C	5.72087	-0.84815	-0.529391
C	4.73485	-1.01428	0.419984
N	4.22998	0.179945	0.814247
C	4.90023	1.0835	0.112133
N	5.81065	0.513684	-0.71252
H	6.34423	-1.5783	-1.06962
H	4.3787	-1.97444	0.827531
H	4.76431	2.17582	0.162939
H	6.46099	1.01398	-1.36675
