18
  This energy is -0.6777 and Call times are: 173380
C	-0.864487	0.621776	0.390457
C	-1.0271	-0.657258	-0.0545183
C	0.270003	-1.09879	-0.457882
C	1.11075	-0.0505863	-0.223788
O	0.434814	1.00853	0.294282
H	-1.58435	1.35233	0.794618
H	-1.96624	-1.23214	-0.094679
H	0.536504	-2.08407	-0.872967
H	2.19568	0.0656263	-0.380869
C	6.92421	0.0443836	-0.578024
C	6.28351	-1.08542	-0.115214
N	5.12191	-0.768289	0.506591
C	5.0423	0.553222	0.429823
N	6.10509	1.09008	-0.21505
H	7.87343	0.173935	-1.12184
H	6.63859	-2.1237	-0.218826
H	4.22734	1.17824	0.829102
H	6.2731	2.1088	-0.402769
