18
  This energy is -1.1764 and Call times are: 164998
C	-0.457584	0.683867	0.780605
C	-0.252915	-0.645959	1.00432
C	0.331313	-1.15866	-0.193985
C	0.432083	-0.0968774	-1.04418
O	-0.0450251	1.03643	-0.465392
H	-0.882933	1.47565	1.41889
H	-0.489607	-1.20934	1.9212
H	0.637655	-2.19859	-0.390919
H	0.819628	-0.0184683	-2.07322
C	5.80215	0.412163	0.0220361
C	4.82406	0.613955	0.972702
N	3.67032	-0.00675002	0.626123
C	3.93166	-0.591388	-0.535136
N	5.20386	-0.368399	-0.941794
H	6.84675	0.75727	-0.0349205
H	4.93019	1.1963	1.90247
H	3.22764	-1.19475	-1.13056
H	5.64956	-0.72263	-1.82335
