18
  This energy is -1.6012 and Call times are: 9332
C	-0.284019	1.097	-0.0481096
C	-0.418228	0.260203	-1.11681
C	0.0363591	-1.01857	-0.671619
C	0.40823	-0.850328	0.629834
O	0.219315	0.435548	1.02713
H	-0.508207	2.1695	0.0733609
H	-0.799131	0.517621	-2.11818
H	0.0779912	-1.94977	-1.25919
H	0.816555	-1.55713	1.37075
C	4.86694	-0.803895	0.388134
C	4.65971	0.458357	0.902838
N	3.69902	1.11688	0.210059
C	3.31174	0.266387	-0.730848
N	3.98619	-0.905974	-0.665455
H	5.55586	-1.60985	0.687073
H	5.18617	0.905701	1.76166
H	2.53819	0.451034	-1.49358
H	3.86187	-1.73479	-1.29702
