18
  This energy is -0.7396 and Call times are: 204902
C	0.632507	0.679692	0.651425
C	-0.586287	1.05712	0.169278
C	-1.06441	-0.050563	-0.595285
C	-0.0955832	-1.0071	-0.512858
O	0.948027	-0.578085	0.244664
H	1.36312	1.20763	1.28604
H	-1.09736	2.01905	0.335363
H	-2.0199	-0.118214	-1.13986
H	-0.0302291	-2.02039	-0.942054
C	5.50651	-0.397172	1.09083
C	4.62331	-0.422114	0.0322985
N	5.17761	0.119494	-1.07942
C	6.40003	0.479067	-0.711971
N	6.6465	0.188695	0.587464
H	5.40775	-0.743328	2.13196
H	3.59607	-0.821206	0.0508271
H	7.15572	0.958912	-1.35455
H	7.53644	0.374465	1.11163
