18
  This energy is -1.3157 and Call times are: 136449
C	-0.520556	-0.108889	1.00178
C	-0.672763	-1.01846	-0.00314768
C	0.127403	-0.542114	-1.08617
C	0.697945	0.6165	-0.647457
O	0.313211	0.89627	0.625618
H	-0.945746	-0.0640304	2.01788
H	-1.2869	-1.9331	0.016279
H	0.257013	-1.01398	-2.07341
H	1.38611	1.32415	-1.13828
C	4.19364	0.411165	0.846812
C	5.27913	-0.423699	1.00758
N	5.86563	-0.697401	-0.183058
C	5.14672	-0.0348535	-1.07906
N	4.12711	0.649061	-0.507872
H	3.48736	0.83857	1.57622
H	5.64963	-0.83346	1.96135
H	5.32311	-0.0158875	-2.16661
H	3.42053	1.24668	-1.0027
