18
  This energy is -0.8712 and Call times are: 210071
C	0.648727	0.0817453	-0.926754
C	0.047347	1.16592	-0.358168
C	-0.671375	0.667038	0.770847
C	-0.445749	-0.677952	0.792521
O	0.358391	-1.0527	-0.237009
H	1.2992	-0.0131104	-1.81171
H	0.10416	2.21202	-0.699552
H	-1.28261	1.24943	1.47888
H	-0.79531	-1.46695	1.47848
C	5.81001	0.090199	0.740839
C	4.71204	-0.732937	0.875188
N	3.85626	-0.579582	-0.164349
C	4.42118	0.335213	-0.940647
N	5.60093	0.770269	-0.438134
H	6.6958	0.235308	1.37947
H	4.52202	-1.43473	1.70358
H	4.01389	0.72285	-1.88832
H	6.23545	1.48875	-0.865255
