18
  This energy is -0.9095 and Call times are: 130547
C	-0.844414	-0.545711	-0.524943
C	-1.06649	0.49341	0.330208
C	0.222754	0.910296	0.782068
C	1.11886	0.0891266	0.163153
O	0.484573	-0.806176	-0.638802
H	-1.53792	-1.17417	-1.10747
H	-2.04047	0.923227	0.614311
H	0.447115	1.72761	1.48617
H	2.21921	0.0407196	0.209341
C	5.45985	-0.410262	1.04273
C	5.20912	-1.14785	-0.0949161
N	4.80955	-0.351042	-1.11567
C	4.81238	0.8762	-0.613188
N	5.19719	0.893275	0.684971
H	5.7954	-0.710715	2.04805
H	5.30938	-2.24068	-0.197474
H	4.5414	1.79838	-1.15206
H	5.27974	1.73848	1.30148
