18
  This energy is -1.1183 and Call times are: 164774
C	0.749009	0.0765892	0.848246
C	0.506767	1.11041	-0.0078529
C	-0.4822	0.636651	-0.923064
C	-0.756999	-0.644857	-0.545446
O	-0.0141099	-1.00337	0.534644
H	1.43111	-0.0150327	1.7094
H	0.977301	2.10668	0.00394972
H	-0.930904	1.19256	-1.76194
H	-1.45095	-1.39567	-0.957714
C	4.13164	-0.667389	0.0442712
C	4.74955	-0.0345592	1.10203
N	5.84375	0.650547	0.689886
C	5.90442	0.443525	-0.61858
N	4.89418	-0.344903	-1.05606
H	3.23321	-1.30319	-0.00178633
H	4.42545	-0.0600442	2.1552
H	6.66767	0.845534	-1.3042
H	4.72419	-0.652015	-2.04502
