18
  This energy is -1.524 and Call times are: 184056
C	0.218739	0.296219	1.07276
C	0.100188	-1.00584	0.68421
C	-0.1718	-0.972343	-0.717582
C	-0.195446	0.347224	-1.0619
O	0.0411281	1.13611	0.0191659
H	0.425226	0.749858	2.05603
H	0.194781	-1.90016	1.32086
H	-0.330017	-1.83554	-1.38388
H	-0.367402	0.847467	-2.02908
C	5.04602	-0.795362	0.578919
C	5.26778	0.564098	0.516953
N	4.32641	1.17875	-0.239712
C	3.52371	0.204304	-0.645616
N	3.91532	-1.00487	-0.178581
H	5.59453	-1.60164	1.09136
H	6.09015	1.11245	1.00466
H	2.63465	0.320717	-1.28613
H	3.44686	-1.9264	-0.359121
