18
  This energy is -1.4436 and Call times are: 162812
C	0.516278	1.00766	0.0669574
C	0.0673863	0.342226	1.16971
C	-0.515053	-0.868733	0.685501
C	-0.370665	-0.836401	-0.670404
O	0.257104	0.302383	-1.06549
H	1.02941	1.97706	-0.0434692
H	0.139207	0.671126	2.21889
H	-0.984605	-1.66541	1.2846
H	-0.667935	-1.55192	-1.45456
C	3.91546	0.952831	0.573874
C	3.91641	0.752779	-0.790355
N	4.43243	-0.459901	-1.10602
C	4.75039	-1.01007	0.0579565
N	4.45807	-0.197715	1.10113
H	3.57829	1.80412	1.18638
H	3.554	1.46173	-1.55252
H	5.19994	-2.00551	0.203659
H	4.6149	-0.404862	2.11787
