18
  This energy is -1.6486 and Call times are: 94824
C	-0.573812	0.976969	0.0516934
C	-0.480682	0.244371	-1.09504
C	0.309506	-0.89893	-0.765519
C	0.629491	-0.76406	0.553493
O	0.0983097	0.375926	1.06856
H	-1.08228	1.93018	0.271027
H	-0.923959	0.484944	-2.0747
H	0.600702	-1.72105	-1.43889
H	1.2205	-1.40164	1.23132
C	4.46644	-0.931106	-0.619561
C	3.57352	0.0362335	-1.02956
N	3.37923	0.963898	-0.0609517
C	4.14869	0.573541	0.946114
N	4.82451	-0.564041	0.658422
H	4.8593	-1.82491	-1.12977
H	3.066	0.0814206	-2.00692
H	4.25479	1.0838	1.91699
H	5.49374	-1.07001	1.2888
