18
  This energy is -1.5897 and Call times are: 174918
C	0.613746	-0.132312	0.944569
C	0.695322	0.988436	0.171494
C	-0.213637	0.783685	-0.91109
C	-0.770424	-0.444107	-0.704
O	-0.276641	-1.01776	0.424764
H	1.12998	-0.417127	1.87604
H	1.33174	1.87082	0.346073
H	-0.422094	1.47575	-1.74277
H	-1.51892	-1.01381	-1.27884
C	5.43897	1.0894	-0.074894
C	6.15318	-0.084539	0.0387758
N	5.32562	-1.15586	0.101435
C	4.10266	-0.648466	0.0269212
N	4.11779	0.701279	-0.0805518
H	5.76647	2.13854	-0.149665
H	7.25079	-0.177704	0.0766978
H	3.16088	-1.22022	0.046476
H	3.28227	1.33195	-0.154164
