18
  This energy is -1.3772 and Call times are: 91612
C	0.689217	0.355294	0.827736
C	-0.49995	-0.262378	1.08217
C	-1.06984	-0.554519	-0.194543
C	-0.178611	-0.0895809	-1.11646
O	0.901559	0.46916	-0.509783
H	1.46416	0.755491	1.50194
H	-0.932439	-0.489494	2.06983
H	-2.03203	-1.05318	-0.393582
H	-0.196605	-0.0958688	-2.21867
C	4.31071	0.609503	-0.733809
C	4.04956	-0.63115	-0.191841
N	5.06217	-1.03586	0.612745
C	5.94813	-0.0500231	0.570083
N	5.54122	0.965162	-0.228296
H	3.72743	1.24332	-1.42054
H	3.14865	-1.2415	-0.366953
H	6.91144	-0.0200711	1.10428
H	6.06357	1.85387	-0.424777
