18
  This energy is -1.015 and Call times are: 182799
C	0.667834	0.903489	-0.155261
C	0.884332	-0.00221795	0.841332
C	-0.149694	-0.979197	0.713199
C	-0.90679	-0.584263	-0.350382
O	-0.421917	0.563646	-0.892798
H	1.21009	1.81979	-0.440917
H	1.69124	0.0158594	1.59145
H	-0.303909	-1.86921	1.34422
H	-1.80329	-1.02733	-0.814323
C	5.39187	-0.271161	-1.14521
C	4.37351	-0.477255	-0.238784
N	4.72399	-0.0444416	0.99667
C	5.9551	0.428361	0.85722
N	6.40246	0.314317	-0.415749
H	5.46645	-0.492323	-2.22181
H	3.39215	-0.930495	-0.454121
H	6.57481	0.869252	1.65459
H	7.34044	0.614672	-0.778012
