18
  This energy is -1.1506 and Call times are: 161540
C	-0.733886	-0.117737	-0.856709
C	-0.954416	-0.662596	0.374091
C	0.175762	-0.301941	1.16954
C	0.987159	0.431472	0.354611
O	0.447197	0.553953	-0.886538
H	-1.33242	-0.136095	-1.78228
H	-1.82556	-1.25868	0.69013
H	0.355109	-0.562801	2.22495
H	1.96116	0.914931	0.535835
C	5.09596	0.329005	-1.09053
C	5.23502	1.07012	0.063832
N	4.79126	0.381242	1.1432
C	4.37847	-0.782811	0.66028
N	4.54119	-0.863137	-0.681606
H	5.34424	0.557946	-2.13909
H	5.6476	2.08955	0.137212
H	3.94871	-1.61199	1.24509
H	4.29219	-1.67825	-1.29385
