18
  This energy is -0.4341 and Call times are: 180340
C	-0.837394	0.272686	0.714713
C	0.467564	0.578146	0.967998
C	1.20921	0.0795303	-0.146212
C	0.291989	-0.486609	-0.982016
O	-0.963004	-0.377716	-0.471968
H	-1.75763	0.461007	1.29174
H	0.867755	1.10203	1.85088
H	2.29875	0.139957	-0.298978
H	0.403679	-0.992062	-1.95531
C	7.34724	-0.259669	0.948024
C	7.79799	0.273579	-0.240929
N	6.77863	0.444435	-1.11741
C	5.6996	0.0188	-0.474653
N	5.99015	-0.415791	0.774467
H	7.87843	-0.530075	1.87444
H	8.84047	0.538093	-0.48202
H	4.6719	0.00323072	-0.871927
H	5.31102	-0.798713	1.4769
