18
  This energy is -0.8338 and Call times are: 101570
C	-0.879751	-0.373683	0.610573
C	0.172933	0.285657	1.17405
C	1.06413	0.589505	0.100005
C	0.477371	0.0890187	-1.02498
O	-0.710469	-0.502622	-0.731712
H	-1.79801	-0.796072	1.05061
H	0.308289	0.533215	2.23917
H	2.02785	1.11949	0.166816
H	0.79912	0.0894033	-2.07937
C	4.98349	-0.920909	0.153715
C	4.7848	0.150098	-0.691632
N	5.81313	1.0295	-0.616155
C	6.64659	0.506047	0.272636
N	6.1912	-0.669963	0.765797
H	4.37134	-1.81409	0.356284
H	3.91787	0.304036	-1.35465
H	7.60434	0.942254	0.599234
H	6.6674	-1.27526	1.47861
