18
  This energy is -0.7822 and Call times are: 3967
C	1.02105	0.450478	0.202298
C	0.0807381	1.08344	-0.556346
C	-1.05267	0.214551	-0.579435
C	-0.704911	-0.872678	0.167138
O	0.558199	-0.745464	0.652301
H	2.0439	0.74202	0.492198
H	0.175728	2.06386	-1.05016
H	-2.01117	0.387341	-1.09471
H	-1.25909	-1.79011	0.424913
C	5.7059	-1.01526	0.558521
C	6.20773	-0.627831	-0.665904
N	5.76393	0.606194	-1.00757
C	4.98973	0.982889	0.00106231
N	4.92253	0.0396962	0.970321
H	5.84613	-1.93631	1.14635
H	6.88207	-1.21661	-1.30891
H	4.44802	1.93913	0.0809665
H	4.37752	0.100472	1.86504
