18
  This energy is -0.7589 and Call times are: 60691
C	0.688002	-0.0644995	-0.899386
C	-0.539439	0.52722	-0.959653
C	-1.09411	0.411435	0.351473
C	-0.156656	-0.240817	1.09721
O	0.938179	-0.539087	0.349289
H	1.46774	-0.210258	-1.6649
H	-1.00732	0.998005	-1.83916
H	-2.07756	0.774599	0.690644
H	-0.148691	-0.54768	2.15599
C	6.54962	-0.140652	-0.80216
C	6.71394	0.0274712	0.556471
N	5.51835	0.160268	1.18052
C	4.61575	0.0748536	0.212719
N	5.18749	-0.106785	-1.00125
H	7.2812	-0.277434	-1.61433
H	7.67375	0.0553293	1.0976
H	3.52279	0.138752	0.337585
H	4.68825	-0.203407	-1.91923
