18
  This energy is -1.5241 and Call times are: 123583
C	-0.0378313	-1.02465	0.484831
C	-0.22105	0.126083	1.19379
C	-0.102297	1.19058	0.248876
C	0.143007	0.596378	-0.954088
O	0.185704	-0.756186	-0.82855
H	-0.042489	-2.08267	0.79438
H	-0.419878	0.216258	2.2738
H	-0.190745	2.2702	0.450602
H	0.303582	1.0195	-1.95929
C	3.67182	0.92158	0.0744443
C	3.62751	-0.0950208	-0.855987
N	4.62002	-0.993469	-0.645701
C	5.27756	-0.535981	0.411167
N	4.74456	0.61631	0.882049
H	3.03707	1.81099	0.214351
H	2.89717	-0.196307	-1.67525
H	6.15646	-1.00557	0.881537
H	5.08386	1.1714	1.70546
