18
  This energy is -0.8623 and Call times are: 7614
C	-1.03358	0.0333648	0.465822
C	0.0928653	-0.187244	1.20258
C	1.17873	-0.15744	0.275147
C	0.619973	0.0787506	-0.946484
O	-0.7303	0.197959	-0.848689
H	-2.0956	0.0957338	0.754758
H	0.15309	-0.354213	2.29005
H	2.24825	-0.296708	0.500572
H	1.06883	0.182589	-1.94798
C	5.27609	0.591211	0.715208
C	6.55217	0.957188	0.342606
N	7.09868	0.0413255	-0.493477
C	6.16519	-0.889289	-0.639006
N	5.04739	-0.603512	0.0698246
H	4.53914	1.0801	1.37204
H	7.08831	1.86567	0.662078
H	6.24792	-1.80061	-1.25291
H	4.17308	-1.18186	0.118491
