18
  This energy is -0.6944 and Call times are: 53164
C	-0.815474	0.785695	-0.0639212
C	0.495323	1.07178	-0.309562
C	1.20347	-0.155779	-0.131417
C	0.262905	-1.08364	0.207359
O	-0.975653	-0.526078	0.253263
H	-1.71772	1.41886	-0.0815365
H	0.920863	2.0492	-0.588249
H	2.28724	-0.31937	-0.244519
H	0.345985	-2.15851	0.437615
C	6.29033	-1.14165	-0.285713
C	7.34483	-0.430917	0.247219
N	7.00621	0.865013	0.453151
C	5.74642	0.957886	0.0495076
N	5.26944	-0.225232	-0.404712
H	6.19724	-2.19943	-0.578924
H	8.34392	-0.829995	0.486824
H	5.12589	1.86835	0.0646133
H	4.30559	-0.409352	-0.776664
