18
  This energy is -0.9799 and Call times are: 189833
C	0.896105	0.694688	-0.028373
C	0.528877	0.0219305	1.09986
C	-0.627062	-0.737584	0.743406
C	-0.864168	-0.461907	-0.571188
O	0.05639	0.411013	-1.05862
H	1.72397	1.39563	-0.224799
H	1.02248	0.0570006	2.08435
H	-1.2079	-1.40848	1.39657
H	-1.64468	-0.817757	-1.26359
C	5.68426	0.878147	-0.779007
C	6.65854	-0.045485	-0.464655
N	6.22054	-0.916614	0.476517
C	4.97926	-0.534858	0.74502
N	4.60931	0.543058	0.0137025
H	5.67995	1.72202	-1.4871
H	7.66967	-0.098918	-0.900096
H	4.29685	-1.00932	1.46851
H	3.68056	1.03064	0.04466
