18
  This energy is -0.8428 and Call times are: 19316
C	0.349024	0.654487	0.858039
C	1.07365	0.504365	-0.287717
C	0.317999	-0.381465	-1.11501
C	-0.801687	-0.694462	-0.401772
O	-0.799251	-0.0705836	0.805614
H	0.539204	1.24113	1.77179
H	2.04304	0.970646	-0.526365
H	0.585021	-0.738556	-2.12262
H	-1.66292	-1.34037	-0.639122
C	4.88515	0.182746	0.567249
C	6.15572	0.42125	1.04673
N	7.09472	0.0963463	0.125191
C	6.40929	-0.342052	-0.921998
N	5.07309	-0.309555	-0.704956
H	3.8936	0.323803	1.02602
H	6.41172	0.821943	2.04109
H	6.83588	-0.69887	-1.87328
H	4.32315	-0.603396	-1.37764
