18
  This energy is -1.0876 and Call times are: 96765
C	0.777869	-0.166861	-0.80838
C	-0.33011	-0.953073	-0.687435
C	-1.05572	-0.437004	0.429381
C	-0.327099	0.619013	0.892317
O	0.79591	0.798349	0.148206
H	1.6168	-0.190742	-1.52313
H	-0.608507	-1.81042	-1.32111
H	-2.00857	-0.814674	0.833783
H	-0.497782	1.31319	1.7315
C	5.01234	-0.983827	0.639918
C	5.95619	0.0117809	0.777999
N	5.75917	1.00081	-0.127274
C	4.69714	0.620214	-0.824311
N	4.21025	-0.569975	-0.400066
H	4.85978	-1.92612	1.18978
H	6.7758	0.0341855	1.51461
H	4.2342	1.17525	-1.65609
H	3.37995	-1.08027	-0.789225
