18
  This energy is -1.1192 and Call times are: 160603
C	-0.0506863	-0.839503	0.760964
C	1.10608	-0.170697	0.487171
C	0.771583	0.797903	-0.507837
C	-0.560063	0.635491	-0.754242
O	-1.07838	-0.360216	0.0118691
H	-0.270681	-1.66458	1.45818
H	2.09565	-0.34223	0.940417
H	1.45023	1.52668	-0.979445
H	-1.24548	1.15813	-1.44149
C	4.67235	-0.869261	-0.592507
C	5.32883	0.21818	-1.12884
N	5.81842	1.02276	-0.154434
C	5.467	0.436683	0.982074
N	4.77412	-0.707442	0.771182
H	4.15715	-1.71849	-1.06886
H	5.45798	0.436627	-2.20143
H	5.69127	0.802588	1.99699
H	4.38799	-1.34901	1.50641
