18
  This energy is -1.1007 and Call times are: 200942
C	0.329193	1.0629	-0.219702
C	-0.479244	0.35946	-1.06349
C	-0.6668	-0.917352	-0.451366
C	0.0435812	-0.881437	0.712439
O	0.658195	0.320408	0.870009
H	0.735988	2.08569	-0.280323
H	-0.901181	0.705024	-2.0209
H	-1.26307	-1.75858	-0.839824
H	0.189411	-1.63521	1.50352
C	3.87543	-0.550305	0.180302
C	4.29868	0.0488721	-0.98717
N	5.53326	0.587988	-0.839982
C	5.87462	0.324266	0.414032
N	4.9084	-0.360299	1.07083
H	2.94334	-1.08077	0.432021
H	3.73535	0.101831	-1.93306
H	6.8203	0.60939	0.902525
H	4.94012	-0.684542	2.06839
