18
  This energy is -0.7828 and Call times are: 161380
C	0.63851	-0.893357	0.283936
C	-0.704097	-0.850448	0.520455
C	-1.14725	0.415713	0.0299726
C	-0.0363219	1.03476	-0.462974
O	1.06326	0.249677	-0.316121
H	1.39317	-1.66941	0.492457
H	-1.32056	-1.63201	0.99292
H	-2.17561	0.811035	0.0465384
H	0.101739	2.02045	-0.936911
C	5.55757	0.872649	0.643585
C	4.39455	0.911923	-0.0959882
N	4.16795	-0.272897	-0.713539
C	5.18654	-1.04427	-0.358428
N	6.05183	-0.399359	0.459469
H	6.05199	1.63445	1.26708
H	3.71487	1.77394	-0.195052
H	5.34781	-2.08926	-0.668614
H	6.9316	-0.793275	0.874313
