18
  This energy is -0.7581 and Call times are: 101794
C	1.02074	0.120252	0.479607
C	0.490068	-1.10196	0.188147
C	-0.787094	-0.844198	-0.397115
C	-0.92413	0.512778	-0.411635
O	0.170588	1.11772	0.120014
H	1.98088	0.410145	0.937157
H	0.951677	-2.0863	0.367317
H	-1.5126	-1.58894	-0.761942
H	-1.74104	1.16133	-0.76842
C	6.66874	-0.35575	0.341067
C	5.89223	0.617294	0.933825
N	4.71613	0.770514	0.278217
C	4.76284	-0.10415	-0.717475
N	5.91991	-0.80754	-0.722571
H	7.66789	-0.745665	0.592485
H	6.15954	1.21153	1.82281
H	3.97713	-0.270777	-1.47188
H	6.1943	-1.5547	-1.40647
