18
  This energy is -0.9566 and Call times are: 167834
C	-0.218371	0.618037	-0.925605
C	0.65887	1.0269	0.0354637
C	0.663264	-0.00342194	1.02467
C	-0.211681	-0.950944	0.580773
O	-0.759327	-0.587803	-0.608858
H	-0.540195	1.08807	-1.8694
H	1.24416	1.96039	0.0466735
H	1.25263	-0.0276031	1.95535
H	-0.527392	-1.9145	1.01337
C	4.69308	0.741349	-0.429384
C	4.56099	-0.0786081	0.671236
N	5.6885	-0.800626	0.880788
C	6.51692	-0.429998	-0.0861564
N	5.96324	0.497909	-0.902256
H	3.99634	1.45699	-0.894082
H	3.67232	-0.162161	1.31788
H	7.54059	-0.806453	-0.243035
H	6.41539	0.946436	-1.73631
