18
  This energy is -0.8074 and Call times are: 153074
C	0.99208	0.347906	-0.425606
C	0.0142501	1.21967	-0.0457965
C	-1.0644	0.413827	0.430916
C	-0.650497	-0.879234	0.300337
O	0.603121	-0.938148	-0.221182
H	1.99569	0.514692	-0.850108
H	0.0490441	2.31982	-0.0962674
H	-2.0322	0.764959	0.823546
H	-1.14772	-1.83369	0.539134
C	4.63524	0.308741	0.736177
C	4.92881	0.88279	-0.482603
N	5.99206	0.276826	-1.06469
C	6.3567	-0.669549	-0.210273
N	5.56955	-0.69085	0.891326
H	3.85364	0.533324	1.47929
H	4.39248	1.72334	-0.952364
H	7.19302	-1.3749	-0.341702
H	5.65474	-1.34432	1.70801
