18
  This energy is -0.6952 and Call times are: 64609
C	-0.363497	0.262921	-1.0417
C	0.928371	0.455228	-0.648678
C	0.994954	0.0104487	0.706998
C	-0.262104	-0.414392	1.02273
O	-1.1046	-0.267447	-0.0334942
H	-0.873534	0.46008	-1.99891
H	1.75182	0.868804	-1.25282
H	1.88029	0.0106062	1.36295
H	-0.679498	-0.8361	1.95182
C	6.75929	-0.836341	0.330318
C	6.81156	0.503109	0.65325
N	5.77462	1.17945	0.102046
C	5.08169	0.263075	-0.560319
N	5.63476	-0.968296	-0.453405
H	7.42067	-1.67693	0.593962
H	7.5789	0.993609	1.27409
H	4.16161	0.439444	-1.14046
H	5.27541	-1.85465	-0.885252
