18
  This energy is -1.8953 and Call times are: 159513
C	-0.134451	0.983218	-0.549187
C	0.862507	0.104861	-0.857306
C	0.7044	-0.996094	0.038807
C	-0.375218	-0.693326	0.815421
O	-0.899906	0.511852	0.47008
H	-0.402238	1.96403	-0.975273
H	1.63205	0.220617	-1.63737
H	1.32698	-1.90367	0.0916734
H	-0.862996	-1.24438	1.63619
C	4.52255	-0.221136	-1.00137
C	5.86228	0.0758512	-0.866981
N	6.19092	0.273748	0.432767
C	5.05936	0.10019	1.10216
N	4.02438	-0.199933	0.282206
H	3.90887	-0.438809	-1.88994
H	6.59765	0.150877	-1.68457
H	4.93253	0.181082	2.19377
H	3.03159	-0.381819	0.569525
