18
  This energy is -1.135 and Call times are: 107972
C	-0.0585956	-1.07955	0.342832
C	1.12927	-0.434183	0.161608
C	0.79517	0.88695	-0.266294
C	-0.567369	0.93228	-0.308781
O	-1.10525	-0.260033	0.0601234
H	-0.290144	-2.10783	0.665765
H	2.13943	-0.847044	0.31397
H	1.49479	1.70207	-0.511666
H	-1.26379	1.74223	-0.581233
C	5.632	-1.0121	-0.500527
C	4.6808	-0.130434	-0.968535
N	4.55218	0.934547	-0.140414
C	5.42029	0.714406	0.837619
N	6.09593	-0.446497	0.666116
H	5.99935	-1.97003	-0.901735
H	4.08502	-0.243682	-1.8889
H	5.60163	1.3708	1.70393
H	6.83278	-0.840623	1.30092
