18
  This energy is -1.3864 and Call times are: 181523
C	1.01737	0.260711	0.428242
C	0.724416	-0.98089	-0.0544391
C	-0.631587	-0.91775	-0.498721
C	-1.04756	0.356861	-0.248315
O	-0.0533141	1.09043	0.31769
H	1.93836	0.674547	0.870697
H	1.39585	-1.85366	-0.0936883
H	-1.22055	-1.73183	-0.950927
H	-2.01332	0.858552	-0.424035
C	4.79902	0.969902	0.66662
C	5.26439	-0.278282	1.02244
N	5.11054	-1.16439	0.00870924
C	4.55184	-0.468575	-0.972268
N	4.34383	0.823531	-0.624725
H	4.76082	1.92025	1.22242
H	5.70842	-0.555334	1.99246
H	4.27414	-0.855967	-1.96577
H	3.91712	1.57135	-1.22467
