18
  This energy is -1.1239 and Call times are: 59646
C	0.613875	0.925123	0.231744
C	1.12751	-0.334882	0.32628
C	0.0662784	-1.21817	-0.0393682
C	-1.00218	-0.41996	-0.325068
O	-0.685617	0.89195	-0.164779
H	1.06435	1.91407	0.416952
H	2.15103	-0.614285	0.623669
H	0.103388	-2.31859	-0.0818469
H	-2.0283	-0.660022	-0.648625
C	5.16991	-0.913859	0.391075
C	6.53659	-0.753317	0.477939
N	6.92692	0.420209	-0.0761296
C	5.80665	0.98554	-0.505091
N	4.7197	0.220363	-0.246925
H	4.50793	-1.72782	0.726918
H	7.24799	-1.46322	0.930475
H	5.72528	1.95904	-1.0149
H	3.72377	0.44779	-0.487026
