18
  This energy is -0.9307 and Call times are: 198179
C	-0.892289	0.0784348	0.695751
C	0.28008	0.733267	0.934753
C	1.14713	0.390267	-0.147234
C	0.42806	-0.443888	-0.951908
O	-0.819673	-0.645267	-0.452288
H	-1.8396	0.0461754	1.25862
H	0.511126	1.39178	1.78744
H	2.18409	0.729962	-0.300246
H	0.687165	-0.953398	-1.89452
C	5.18537	-0.0953193	1.13005
C	5.9841	-0.964348	0.41733
N	6.14023	-0.546591	-0.862363
C	5.44102	0.577329	-0.94322
N	4.84648	0.892002	0.231979
H	4.84549	-0.109152	2.17782
H	6.45051	-1.88529	0.803548
H	5.33071	1.20962	-1.83892
H	4.24244	1.72868	0.422679
