18
  This energy is -1.3064 and Call times are: 177997
C	-0.202959	1.01808	-0.456856
C	-1.0308	0.454969	0.469401
C	-0.448308	-0.806958	0.798579
C	0.68407	-0.90359	0.0444194
O	0.849482	0.202154	-0.728225
H	-0.251587	1.98087	-0.991576
H	-1.95858	0.885082	0.879686
H	-0.834656	-1.5498	1.51483
H	1.44593	-1.69665	-0.0322822
C	4.80271	-0.745205	0.759634
C	4.2598	0.489058	1.04771
N	3.76583	1.07811	-0.0683253
C	4.0014	0.212564	-1.04504
N	4.62478	-0.902782	-0.596721
H	5.28694	-1.49747	1.40241
H	4.21567	0.965091	2.04083
H	3.73827	0.345284	-2.10682
H	4.9169	-1.72997	-1.17263
