18
  This energy is -2.396 and Call times are: 192982
C	-0.136828	-0.477888	-1.01946
C	0.0615739	-1.21394	0.111574
C	0.187975	-0.269448	1.17556
C	0.0556568	0.960391	0.600793
O	-0.143321	0.851938	-0.739229
H	-0.284931	-0.777327	-2.07001
H	0.113687	-2.31185	0.188869
H	0.357577	-0.489459	2.24183
H	0.0834277	1.97512	1.03068
C	3.70573	1.16915	-0.134708
C	3.68644	0.220951	-1.13555
N	3.68518	-1.03272	-0.620955
C	3.70361	-0.862914	0.694131
N	3.71656	0.446835	1.03761
H	3.7123	2.27009	-0.172492
H	3.67341	0.418966	-2.21974
H	3.70846	-1.66328	1.45151
H	3.73191	0.837622	2.01142
