18
  This energy is -1.5672 and Call times are: 59069
C	-0.988255	0.552788	-0.0646413
C	-0.190046	0.610291	1.03986
C	0.946346	-0.202767	0.743776
C	0.742252	-0.685344	-0.515524
O	-0.434358	-0.234049	-1.02438
H	-1.96119	1.02018	-0.28869
H	-0.382211	1.16919	1.96981
H	1.81045	-0.399601	1.39851
H	1.3505	-1.34924	-1.15155
C	4.68081	-1.13101	-0.270576
C	4.48419	-0.0902015	-1.1533
N	4.30697	1.08138	-0.495654
C	4.39332	0.76858	0.790162
N	4.61814	-0.553464	0.977902
H	4.85509	-2.20595	-0.436938
H	4.46703	-0.163637	-2.25292
H	4.29949	1.46881	1.6358
H	4.72445	-1.04489	1.89902
