18
  This energy is -1.1815 and Call times are: 99001
C	-0.607456	-0.525369	-0.800866
C	0.434475	0.302508	-1.09982
C	0.938927	0.764579	0.154027
C	0.160728	0.178277	1.10851
O	-0.788772	-0.612849	0.543189
H	-1.28953	-1.10411	-1.44514
H	0.810135	0.561791	-2.10269
H	1.78347	1.45335	0.3166
H	0.180547	0.242464	2.20884
C	4.63516	-0.727282	-0.328939
C	5.97671	-0.850777	-0.622421
N	6.69062	0.166938	-0.0828886
C	5.79537	0.918935	0.542925
N	4.54143	0.42188	0.423942
H	3.76941	-1.3549	-0.593738
H	6.44229	-1.65598	-1.2138
H	6.00384	1.84423	1.10381
H	3.66483	0.833479	0.828195
