18
  This energy is -0.4415 and Call times are: 74646
C	1.05094	0.250531	0.345207
C	0.24284	-0.609213	1.02945
C	-0.97997	-0.665889	0.293492
C	-0.811169	0.164223	-0.775523
O	0.423349	0.732316	-0.759795
H	2.07937	0.597389	0.538253
H	0.483683	-1.14931	1.95918
H	-1.87572	-1.25866	0.539146
H	-1.48416	0.432221	-1.6065
C	6.33497	1.09741	-0.218019
C	5.54315	-0.00798544	0.0105741
N	6.29731	-1.11292	0.22709
C	7.55222	-0.694582	0.133175
N	7.62778	0.630723	-0.134121
H	6.07852	2.14808	-0.427472
H	4.4412	-0.0280473	0.0231532
H	8.45395	-1.31679	0.251401
H	8.50421	1.1952	-0.254513
