18
  This energy is -1.9438 and Call times are: 38030
C	-0.714051	-0.494572	0.729336
C	-0.42952	-1.03123	-0.491898
C	0.494425	-0.133	-1.10804
C	0.692939	0.873262	-0.208924
O	-0.0372759	0.668641	0.918874
H	-1.37249	-0.838775	1.54373
H	-0.830088	-1.96586	-0.916284
H	0.952656	-0.232733	-2.10512
H	1.32008	1.77886	-0.251826
C	5.01666	0.356894	-1.12136
C	6.10302	0.0041397	-0.349004
N	5.71841	-0.357446	0.899131
C	4.39847	-0.229497	0.901079
N	3.9273	0.198511	-0.294077
H	4.94411	0.698045	-2.16629
H	7.15745	0.0040561	-0.669993
H	3.72803	-0.435883	1.75087
H	2.92341	0.375905	-0.543073
