18
  This energy is -0.4944 and Call times are: 156080
C	0.224974	-1.02244	-0.436362
C	1.09916	0.0203144	-0.530396
C	0.468778	1.11965	0.128541
C	-0.734979	0.651639	0.567073
O	-0.900498	-0.654703	0.230793
H	0.285502	-2.06209	-0.797898
H	2.08865	0.0158048	-1.01515
H	0.872329	2.13696	0.256264
H	-1.55157	1.1416	1.12238
C	5.98927	-0.978737	0.407828
C	5.36379	0.204342	0.0758076
N	6.25811	1.12403	-0.361082
C	7.43394	0.513813	-0.300327
N	7.32483	-0.756005	0.157109
H	5.59176	-1.93161	0.791964
H	4.28322	0.410799	0.14367
H	8.40655	0.950557	-0.578757
H	8.10835	-1.44045	0.294585
