18
  This energy is -1.1127 and Call times are: 165406
C	0.918292	-0.661677	0.0729734
C	0.884076	0.456877	-0.706796
C	-0.420907	1.01212	-0.53697
C	-1.06895	0.183854	0.331587
O	-0.266007	-0.843674	0.714319
H	1.7145	-1.40214	0.254697
H	1.69631	0.851397	-1.33824
H	-0.82164	1.92274	-1.01056
H	-2.08849	0.215961	0.749609
C	5.78121	0.225418	1.12036
C	4.54184	0.368726	0.533345
N	4.57752	0.0182674	-0.775248
C	5.83423	-0.341088	-0.9992
N	6.59964	-0.233804	0.112656
H	6.12715	0.41152	2.14955
H	3.62255	0.718717	1.0306
H	6.24769	-0.690816	-1.95887
H	7.6218	-0.457774	0.191956
