18
  This energy is -1.0703 and Call times are: 206634
C	-0.591832	-0.0491358	0.966292
C	0.768205	-0.148176	0.936906
C	1.13827	-0.0428421	-0.43862
C	-0.0282892	0.111268	-1.12837
O	-1.09493	0.109706	-0.286176
H	-1.30894	-0.0763624	1.80311
H	1.44313	-0.281986	1.79753
H	2.15717	-0.0787448	-0.856538
H	-0.230486	0.230604	-2.20546
C	6.07155	-0.772748	-0.43893
C	5.19098	-0.982454	0.60115
N	4.44862	0.125056	0.843705
C	4.86706	1.01843	-0.0425304
N	5.84488	0.525259	-0.838914
H	6.81854	-1.43331	-0.907138
H	5.07802	-1.91304	1.18089
H	4.49157	2.04861	-0.151961
H	6.33665	1.03463	-1.61349
