18
  This energy is -2.1944 and Call times are: 100666
C	-0.416243	0.396073	0.97789
C	0.508291	1.08204	0.246411
C	0.779828	0.272519	-0.898605
C	-0.00274469	-0.836672	-0.76575
O	-0.739792	-0.777949	0.374567
H	-0.915717	0.632673	1.93172
H	0.954313	2.05999	0.488832
H	1.47824	0.498028	-1.72047
H	-0.124403	-1.72644	-1.40509
C	4.12679	0.662205	0.702398
C	5.47902	0.807174	0.475267
N	5.93207	-0.130321	-0.392123
C	4.86495	-0.854133	-0.701918
N	3.75171	-0.416039	-0.0675973
H	3.42817	1.23106	1.33634
H	6.13587	1.57142	0.921722
H	4.84271	-1.71613	-1.388
H	2.78672	-0.820659	-0.14719
