18
  This energy is -0.7424 and Call times are: 116570
C	0.885725	-0.493618	0.508167
C	0.499412	0.783391	0.791691
C	-0.634921	1.04183	-0.0369329
C	-0.841648	-0.100072	-0.753668
O	0.0778253	-1.04826	-0.433472
H	1.70755	-1.11347	0.902669
H	0.966393	1.47409	1.51207
H	-1.22229	1.97274	-0.0867495
H	-1.59813	-0.36034	-1.51211
C	6.20869	0.313724	0.309373
C	6.76956	0.399717	-0.94728
N	8.04787	-0.0502007	-0.943662
C	8.27915	-0.413927	0.310466
N	7.20098	-0.214087	1.10496
H	5.20706	0.581833	0.681389
H	6.27475	0.778339	-1.85649
H	9.22048	-0.832676	0.701315
H	7.13377	-0.421668	2.13143
