18
  This energy is -1.6749 and Call times are: 43274
C	0.366417	1.04468	0.246559
C	-0.0184858	0.683497	-1.01113
C	-0.408516	-0.687654	-0.922028
C	-0.227525	-1.04332	0.38224
O	0.245235	0.00238717	1.11025
H	0.740711	1.99959	0.650657
H	-0.0269054	1.31889	-1.9113
H	-0.779466	-1.32674	-1.73938
H	-0.395919	-1.99623	0.910311
C	4.29114	1.00969	-0.352704
C	3.79273	0.725571	0.901096
N	3.29946	-0.535426	0.956611
C	3.49113	-1.03171	-0.25813
N	4.0859	-0.138747	-1.08424
H	4.76165	1.91757	-0.762474
H	3.78022	1.40787	1.76664
H	3.21488	-2.04333	-0.59655
H	4.34191	-0.292055	-2.09033
