18
  This energy is -1.1928 and Call times are: 84407
C	0.349906	0.266455	-1.04545
C	0.763025	0.950852	0.0596766
C	0.115763	0.327784	1.17006
C	-0.63575	-0.682358	0.645453
O	-0.504705	-0.734346	-0.706263
H	0.58833	0.391644	-2.11444
H	1.45422	1.80843	0.0899114
H	0.205331	0.606221	2.23239
H	-1.29793	-1.42411	1.12146
C	6.16504	0.166525	0.00639332
C	5.29645	0.354617	1.06059
N	4.02175	0.0683032	0.70049
C	4.09925	-0.296025	-0.572256
N	5.37043	-0.25339	-1.03689
H	7.25599	0.297408	-0.0725816
H	5.56671	0.691786	2.07455
H	3.25599	-0.603651	-1.2114
H	5.68983	-0.494312	-2.00705
