18
  This energy is -1.2045 and Call times are: 181299
C	0.975013	0.0942541	-0.571723
C	0.847021	0.496341	0.72532
C	-0.506302	0.219622	1.08872
C	-1.08584	-0.327136	-0.0183318
O	-0.195682	-0.411192	-1.04184
H	1.83437	0.114149	-1.26191
H	1.62733	0.942995	1.36228
H	-0.983897	0.409069	2.06346
H	-2.10949	-0.692268	-0.20288
C	4.65739	0.912965	0.0105632
C	5.70674	0.689783	0.876692
N	6.35397	-0.461656	0.573705
C	5.70858	-0.950934	-0.476394
N	4.67755	-0.158538	-0.854112
H	3.92223	1.73117	-0.0496674
H	6.00844	1.33896	1.71479
H	5.94907	-1.88585	-1.00774
H	4.019	-0.328107	-1.65337
