18
  This energy is -0.9937 and Call times are: 184570
C	-1.0524	-0.254045	-0.338098
C	-0.395034	-0.979834	0.611361
C	0.882937	-0.359994	0.762047
C	0.893702	0.689852	-0.108632
O	-0.280212	0.76949	-0.788775
H	-2.05912	-0.362235	-0.774059
H	-0.772227	-1.86309	1.15143
H	1.69361	-0.667114	1.44218
H	1.66515	1.44411	-0.334929
C	6.35307	0.218494	1.06658
C	6.18371	0.976408	-0.072725
N	6.84028	0.430312	-1.12496
C	7.41478	-0.66223	-0.640268
N	7.15096	-0.833921	0.67674
H	5.97488	0.349215	2.09295
H	5.59952	1.90749	-0.154336
H	8.03941	-1.37212	-1.20607
H	7.48968	-1.61913	1.28499
