18
  This energy is -1.1977 and Call times are: 183023
C	-0.076766	0.367772	-1.07016
C	-0.967002	0.737385	-0.105157
C	-0.543532	0.0798138	1.09
C	0.568098	-0.633583	0.749825
O	0.867529	-0.469333	-0.565612
H	-0.00718425	0.628218	-2.13908
H	-1.83483	1.40601	-0.223108
H	-1.01775	0.137231	2.08293
H	1.2269	-1.28808	1.34385
C	5.18165	-0.0828727	0.955813
C	4.57729	1.05581	0.466651
N	3.86354	0.787404	-0.653633
C	4.0245	-0.512853	-0.858684
N	4.81108	-1.08288	0.0846937
H	5.82766	-0.246876	1.83291
H	4.64346	2.06623	0.901999
H	3.58875	-1.09814	-1.68438
H	5.08622	-2.09397	0.141668
