18
  This energy is -1.4711 and Call times are: 86409
C	-0.205299	-1.11498	-0.0327224
C	0.899895	-0.558623	-0.606645
C	0.805298	0.844655	-0.357688
C	-0.349351	1.02194	0.346391
O	-0.979326	-0.164274	0.553835
H	-0.550611	-2.16021	0.0265792
H	1.70135	-1.08373	-1.15073
H	1.51883	1.62389	-0.670369
H	-0.826286	1.92924	0.752092
C	5.07171	-0.779913	-0.838451
C	5.31448	-0.900062	0.513501
N	4.8687	0.187206	1.18851
C	4.35135	0.978856	0.258851
N	4.44948	0.440359	-0.979689
H	5.29042	-1.45394	-1.6819
H	5.8033	-1.75179	1.01396
H	3.88784	1.96376	0.430199
H	4.11524	0.870471	-1.87666
