18
  This energy is -0.8979 and Call times are: 28092
C	0.59796	0.244203	0.932314
C	1.0999	-0.523602	-0.0770931
C	0.0656115	-0.603567	-1.05891
C	-0.977067	0.122432	-0.562806
O	-0.669378	0.647355	0.652429
H	1.03651	0.571595	1.88926
H	2.09834	-0.987158	-0.12544
H	0.102681	-1.14145	-2.01985
H	-1.97763	0.338562	-0.971965
C	5.58489	0.925466	0.703149
C	4.91128	-0.23457	1.02206
N	4.88763	-1.09041	-0.0284095
C	5.54407	-0.463695	-0.99533
N	5.98442	0.755424	-0.603623
H	5.80102	1.82979	1.29394
H	4.44192	-0.469325	1.99131
H	5.73128	-0.851892	-2.00947
H	6.52683	1.44057	-1.18468
