18
  This energy is -1.0139 and Call times are: 11911
C	-0.643956	-0.567483	-0.741408
C	-1.17295	0.282845	0.184596
C	-0.0631685	0.797413	0.921971
C	1.04603	0.216106	0.381474
O	0.709927	-0.620413	-0.635523
H	-1.118	-1.18592	-1.52119
H	-2.23783	0.52358	0.33347
H	-0.096519	1.51644	1.75623
H	2.11613	0.313641	0.627672
C	4.71733	0.795535	-0.720591
C	5.64085	1.03364	0.275188
N	5.98099	-0.113937	0.910707
C	5.2712	-1.06036	0.311465
N	4.49353	-0.562541	-0.678988
H	4.22014	1.47379	-1.43215
H	6.06781	2.0129	0.546459
H	5.28281	-2.13423	0.558271
H	3.84388	-1.10732	-1.2974
