18
  This energy is -1.3185 and Call times are: 120284
C	-0.387633	0.49974	0.941489
C	0.920485	0.571645	0.561975
C	1.01596	-0.1704	-0.654729
C	-0.242237	-0.630253	-0.911319
O	-1.11214	-0.230443	0.0532699
H	-0.920936	0.919241	1.81031
H	1.73633	1.09475	1.08623
H	1.92056	-0.337019	-1.26139
H	-0.642692	-1.24323	-1.73542
C	4.55223	1.03967	-0.0642899
C	4.72012	0.260998	1.06116
N	5.39964	-0.875344	0.77221
C	5.65234	-0.80191	-0.527549
N	5.16178	0.334051	-1.07757
H	4.05859	2.0135	-0.210942
H	4.36312	0.498768	2.07647
H	6.19292	-1.55229	-1.12666
H	5.23233	0.622345	-2.08414
