18
  This energy is -0.5898 and Call times are: 195282
C	-1.07795	-0.280675	0.213627
C	-0.141514	-1.20296	-0.15086
C	1.07487	-0.475757	-0.328944
C	0.774362	0.826711	-0.0575607
O	-0.536043	0.964118	0.275561
H	-2.14922	-0.381849	0.453201
H	-0.292203	-2.28665	-0.281239
H	2.0548	-0.883522	-0.624851
H	1.39557	1.73736	-0.0657728
C	5.96464	0.903634	0.675331
C	5.2018	-0.186177	0.312674
N	5.90645	-1.03612	-0.473182
C	7.1019	-0.475717	-0.597576
N	7.18708	0.695556	0.0765566
H	5.73187	1.78319	1.29641
H	4.15558	-0.374417	0.603979
H	7.95154	-0.880437	-1.17077
H	8.02475	1.3252	0.13245
