18
  This energy is -0.9501 and Call times are: 100698
C	-1.02082	0.210489	0.447234
C	-0.0525314	-0.469991	1.12527
C	1.0707	-0.532342	0.245166
C	0.689642	0.11554	-0.892998
O	-0.584753	0.57566	-0.78707
H	-2.04773	0.49553	0.729111
H	-0.122252	-0.886278	2.14308
H	2.04501	-1.00658	0.444926
H	1.22559	0.313826	-1.8357
C	5.37287	0.820073	0.813009
C	4.62017	0.533558	-0.30614
N	5.17612	-0.472035	-1.02461
C	6.26957	-0.808085	-0.353737
N	6.43238	-0.0579937	0.76181
H	5.23416	1.56193	1.61547
H	3.68591	1.03441	-0.608051
H	6.98645	-1.59632	-0.634798
H	7.21635	-0.131342	1.45555
