18
  This energy is -0.9536 and Call times are: 201231
C	-0.410414	0.978651	0.400255
C	-0.765512	0.482061	-0.819449
C	-0.0518926	-0.74673	-0.964153
C	0.676292	-0.892562	0.179899
O	0.469451	0.152004	1.02436
H	-0.709803	1.89733	0.930953
H	-1.46028	0.935565	-1.54452
H	-0.0833531	-1.43538	-1.82373
H	1.36983	-1.68362	0.509256
C	5.98632	-0.641598	0.0248262
C	5.68997	0.451174	0.811702
N	4.46443	0.948285	0.515991
C	4.00225	0.16688	-0.45066
N	4.88291	-0.806808	-0.782256
H	6.87469	-1.29169	-0.0165436
H	6.3385	0.889812	1.5875
H	3.0253	0.263105	-0.951211
H	4.75041	-1.54663	-1.51463
