18
  This energy is -0.9818 and Call times are: 181267
C	0.784725	0.813822	0.0911075
C	0.930712	-0.410255	0.6748
C	-0.246141	-1.14656	0.338667
C	-1.0074	-0.307435	-0.420758
O	-0.393163	0.894111	-0.582054
H	1.43841	1.70142	0.0806081
H	1.78175	-0.759638	1.28123
H	-0.488974	-2.18034	0.63266
H	-1.99118	-0.444335	-0.898954
C	6.12799	-0.455837	0.701236
C	5.62873	-1.01011	-0.458356
N	4.68344	-0.213234	-1.01326
C	4.5966	0.831433	-0.201012
N	5.44746	0.732274	0.847705
H	6.89386	-0.810948	1.40897
H	5.93365	-1.97073	-0.904537
H	3.92657	1.69712	-0.327007
H	5.56612	1.42792	1.6244
