18
  This energy is -0.9553 and Call times are: 151794
C	-0.411778	-0.237565	1.02976
C	-0.0994263	1.03262	0.643191
C	0.381201	0.926223	-0.697628
C	0.320125	-0.39959	-1.01205
O	-0.161829	-1.125	0.0312642
H	-0.814087	-0.635822	1.97569
H	-0.197624	1.95224	1.24215
H	0.729743	1.74695	-1.34495
H	0.586561	-0.945891	-1.93173
C	4.03975	-0.196816	-0.0129743
C	4.70544	0.780213	0.696536
N	6.04137	0.7187	0.477377
C	6.20383	-0.292644	-0.364891
N	5.02664	-0.877166	-0.690724
H	2.96927	-0.447731	-0.081272
H	4.24573	1.52841	1.36265
H	7.16305	-0.647695	-0.774838
H	4.89149	-1.69316	-1.33659
