18
  This energy is -1.012 and Call times are: 62927
C	-0.162883	1.00976	-0.490151
C	-0.718219	0.68334	0.712107
C	-0.289126	-0.649973	0.991882
C	0.490543	-1.02062	-0.0641072
O	0.578538	-0.019163	-0.978634
H	-0.218532	1.92931	-1.09562
H	-1.36513	1.31781	1.33904
H	-0.537198	-1.2548	1.87886
H	1.03193	-1.95625	-0.280301
C	7.26566	-0.875974	0.177545
C	7.35615	0.412615	0.659724
N	6.29791	1.15913	0.260553
C	5.55374	0.336793	-0.466497
N	6.09463	-0.902009	-0.54647
H	7.92958	-1.74723	0.294492
H	8.16606	0.81704	1.28848
H	4.60329	0.59003	-0.963236
H	5.69759	-1.72543	-1.06182
