18
  This energy is -0.9634 and Call times are: 106775
C	0.807116	-0.732575	-0.313525
C	0.164121	0.0724081	-1.20736
C	-0.767116	0.839716	-0.443057
C	-0.610979	0.435888	0.850356
O	0.346312	-0.52385	0.947865
H	1.60036	-1.48631	-0.447334
H	0.329044	0.120994	-2.29572
H	-1.46777	1.60151	-0.821009
H	-1.11346	0.749791	1.78
C	5.64368	-0.114811	0.904901
C	4.96769	-1.12624	0.255908
N	4.19453	-0.634827	-0.74272
C	4.39014	0.67647	-0.713361
N	5.2557	1.03977	0.262552
H	6.34982	-0.134306	1.7502
H	5.02398	-2.20175	0.490338
H	3.92469	1.4169	-1.3837
H	5.57115	2.01513	0.487096
