18
  This energy is -2.2357 and Call times are: 120316
C	0.595377	0.285587	0.922153
C	0.0701804	1.2163	0.0746225
C	-0.598844	0.47909	-0.949604
C	-0.423419	-0.837049	-0.637547
O	0.303621	-0.973698	0.502519
H	1.18828	0.389707	1.84567
H	0.146262	2.31206	0.161938
H	-1.14462	0.889612	-1.8143
H	-0.761398	-1.75869	-1.13914
C	3.62114	-0.320145	-0.822182
C	4.869	-0.865869	-0.607281
N	5.4987	-0.254037	0.425023
C	4.64474	0.667746	0.848923
N	3.49779	0.667776	0.129125
H	2.83829	-0.556996	-1.56014
H	5.32624	-1.69011	-1.1786
H	4.8087	1.36948	1.68254
H	2.67193	1.29993	0.269065
