18
  This energy is -1.4084 and Call times are: 86473
C	0.907583	0.501457	-0.459602
C	0.998475	-0.322104	0.623846
C	-0.335189	-0.751399	0.90163
C	-1.12333	-0.152278	-0.0365909
O	-0.380939	0.616534	-0.876111
H	1.6755	1.05894	-1.02065
H	1.91294	-0.599469	1.17241
H	-0.660354	-1.42779	1.70839
H	-2.21108	-0.192116	-0.21113
C	5.47335	0.835843	0.818792
C	6.59703	0.0725742	0.582355
N	6.39241	-0.795224	-0.438216
C	5.14652	-0.571166	-0.833411
N	4.54994	0.40322	-0.106595
H	5.27218	1.62977	1.5555
H	7.55175	0.132499	1.12988
H	4.62146	-1.0922	-1.65016
H	3.57057	0.760967	-0.22538
