18
  This energy is -0.8141 and Call times are: 86986
C	0.98718	-0.211066	0.517038
C	0.651654	-0.779369	-0.676623
C	-0.646065	-0.276607	-0.997987
C	-0.988997	0.554544	0.0276635
O	-0.00321003	0.606468	0.961761
H	1.88866	-0.306241	1.14436
H	1.25725	-1.48212	-1.27118
H	-1.24669	-0.512044	-1.89124
H	-1.89317	1.15891	0.207841
C	5.88649	-1.04283	-0.246837
C	4.94649	-0.777852	0.726466
N	4.6067	0.53402	0.73336
C	5.33315	1.08081	-0.231995
N	6.12107	0.171231	-0.852827
H	6.38837	-1.97822	-0.5413
H	4.50736	-1.50976	1.42384
H	5.32694	2.1427	-0.526263
H	6.78429	0.355699	-1.64489
