18
  This energy is -0.7854 and Call times are: 129097
C	-0.592554	-0.863967	0.43456
C	0.746332	-0.715736	0.648536
C	1.12488	0.471199	-0.0500381
C	-0.0160969	0.943507	-0.629234
O	-1.07467	0.140443	-0.343729
H	-1.30706	-1.63076	0.77626
H	1.40165	-1.37599	1.23906
H	2.13205	0.914191	-0.10883
H	-0.203892	1.82822	-1.25953
C	7.06259	-0.128788	-0.130006
C	6.08928	-0.408557	-1.06571
N	4.85279	-0.142344	-0.579146
C	5.05824	0.30089	0.653721
N	6.37419	0.327728	0.971759
H	8.15978	-0.219236	-0.168896
H	6.25708	-0.797724	-2.08318
H	4.2806	0.619276	1.36656
H	6.79071	0.637314	1.88386
