18
  This energy is -0.8811 and Call times are: 159051
C	-0.341605	-0.0212428	-1.08132
C	0.597083	-0.882947	-0.594798
C	0.75659	-0.549152	0.784788
C	-0.0987055	0.487063	1.01952
O	-0.777441	0.822483	-0.109115
H	-0.778945	0.0918155	-2.08691
H	1.12429	-1.67425	-1.15156
H	1.43206	-1.0302	1.51034
H	-0.314108	1.06457	1.93349
C	4.89257	-0.86082	-0.621767
C	4.63907	-0.529247	0.692365
N	5.40494	0.516034	1.08904
C	6.13079	0.831724	0.0250383
N	5.85852	0.0306359	-1.03218
H	4.4681	-1.64201	-1.27223
H	3.91729	-1.02552	1.36139
H	6.87665	1.64066	-0.0345868
H	6.29927	0.07934	-1.9833
