18
  This energy is -0.8123 and Call times are: 34119
C	-0.901212	0.687687	-0.0361262
C	-0.927708	-0.578341	-0.542925
C	0.37415	-1.11898	-0.312715
C	1.08127	-0.135598	0.314441
O	0.317919	0.974803	0.491411
H	-1.67345	1.47303	0.0100113
H	-1.77865	-1.08108	-1.03001
H	0.733279	-2.12423	-0.585824
H	2.12043	-0.102494	0.680894
C	4.93276	-0.741033	-0.289573
C	4.89335	0.636519	-0.33364
N	6.07096	1.17219	0.0698694
C	6.838	0.130909	0.363147
N	6.19725	-1.04509	0.162968
H	4.1757	-1.50114	-0.539873
H	4.03632	1.25349	-0.649359
H	7.87674	0.172887	0.728504
H	6.58907	-2.0055	0.322165
