18
  This energy is -1.1118 and Call times are: 194393
C	-0.375091	1.04033	-0.251846
C	-0.677465	-0.0495614	-1.01414
C	-0.0330649	-1.15796	-0.384602
C	0.606206	-0.647555	0.706815
O	0.408071	0.693504	0.803323
H	-0.652092	2.10258	-0.352577
H	-1.29258	-0.07085	-1.92807
H	-0.0492182	-2.2095	-0.713386
H	1.22582	-1.12754	1.48202
C	4.5443	-0.845216	-0.804027
C	3.69143	0.202771	-0.529286
N	4.18488	0.988217	0.458688
C	5.33948	0.429625	0.795577
N	5.60112	-0.678677	0.0629099
H	4.47623	-1.6702	-1.53087
H	2.72888	0.406214	-1.02624
H	6.03277	0.791025	1.57209
H	6.44773	-1.29389	0.140483
