18
  This energy is -1.5066 and Call times are: 211254
C	-1.12585	-0.0795115	0.112021
C	-0.539367	0.738284	-0.808645
C	0.868891	0.564449	-0.645224
C	1.01866	-0.344229	0.36088
O	-0.189252	-0.748185	0.834986
H	-2.18502	-0.272664	0.348857
H	-1.04747	1.39778	-1.53044
H	1.66976	1.06237	-1.21512
H	1.91894	-0.779256	0.825102
C	5.1692	0.814307	0.846881
C	5.93596	-0.325723	0.730446
N	5.58737	-1.03898	-0.367854
C	4.60808	-0.344073	-0.930635
N	4.31913	0.78176	-0.235941
H	5.16835	1.61959	1.59859
H	6.73445	-0.646372	1.41925
H	4.06764	-0.614142	-1.85216
H	3.58703	1.49413	-0.476382
