18
  This energy is -0.8633 and Call times are: 57495
C	0.541748	-0.826942	0.555947
C	0.173699	0.339522	1.1595
C	-0.473726	1.11493	0.149697
C	-0.444158	0.353852	-0.981791
O	0.172311	-0.835319	-0.751898
H	1.0645	-1.71706	0.94282
H	0.341309	0.62526	2.21038
H	-0.907894	2.1214	0.261975
H	-0.822235	0.542634	-1.99996
C	6.33265	0.316964	0.0415377
C	5.80618	-0.791954	-0.586374
N	4.46089	-0.847789	-0.432776
C	4.15395	0.22242	0.287684
N	5.24818	0.95688	0.598858
H	7.36776	0.68378	0.128328
H	6.37293	-1.55274	-1.14748
H	3.14361	0.515862	0.615303
H	5.26687	1.84465	1.15812
