18
  This energy is -0.7063 and Call times are: 107160
C	1.04674	0.0220893	-0.436182
C	0.181321	1.06896	-0.560659
C	-1.01529	0.66877	0.108736
C	-0.775471	-0.587322	0.583179
O	0.478964	-0.998011	0.259548
H	2.08029	-0.118466	-0.792922
H	0.366971	2.02689	-1.07251
H	-1.94188	1.25473	0.219078
H	-1.40688	-1.2847	1.15784
C	6.88475	0.456486	-0.00492947
C	6.25461	-0.190771	-1.04662
N	5.00821	-0.587882	-0.69266
C	4.86565	-0.1885	0.563842
N	5.96969	0.446262	1.02402
H	7.88619	0.908566	0.0743257
H	6.67699	-0.378339	-2.04725
H	3.9735	-0.334996	1.19379
H	6.10318	0.853108	1.9821
