18
  This energy is -1.529 and Call times are: 103840
C	0.191304	0.824894	-0.754555
C	-0.690302	-0.18916	-0.988732
C	-0.654339	-1.01528	0.175894
C	0.246068	-0.433126	1.01895
O	0.772253	0.691733	0.466829
H	0.490479	1.69002	-1.36881
H	-1.30434	-0.340268	-1.89107
H	-1.23495	-1.93426	0.356064
H	0.595281	-0.717466	2.02515
C	4.02837	0.744951	-0.484491
C	5.34794	0.570485	-0.844267
N	5.94402	-0.371602	-0.0737662
C	4.99784	-0.780027	0.760833
N	3.82445	-0.136861	0.5533
H	3.2461	1.41196	-0.880326
H	5.88058	1.1075	-1.646
H	5.11038	-1.54747	1.54352
H	2.9298	-0.28224	1.08219
