18
  This energy is -0.9561 and Call times are: 62959
C	-0.911593	-0.0910119	0.668667
C	-0.288974	-1.17871	0.13049
C	0.799278	-0.665298	-0.639079
C	0.745606	0.690814	-0.503238
O	-0.293077	1.05905	0.292093
H	-1.79173	-0.00360072	1.32668
H	-0.568045	-2.23647	0.262214
H	1.53173	-1.24585	-1.22266
H	1.37967	1.49259	-0.916006
C	5.20791	0.117626	-1.16602
C	4.51344	-0.866068	-0.494317
N	4.60011	-0.696003	0.847353
C	5.34552	0.389068	1.00737
N	5.73672	0.916449	-0.176866
H	5.35823	0.299659	-2.24204
H	3.95139	-1.69546	-0.953736
H	5.63533	0.840807	1.96975
H	6.32985	1.77104	-0.315171
