18
  This energy is -0.6592 and Call times are: 20566
C	-1.12431	0.0775097	0.127727
C	-0.443878	-1.08589	0.337185
C	0.929108	-0.787531	0.0802662
C	0.966481	0.531861	-0.263512
O	-0.278677	1.07594	-0.23975
H	-2.19649	0.321622	0.205818
H	-0.866416	-2.05678	0.64203
H	1.78275	-1.48109	0.146306
H	1.80468	1.19112	-0.542898
C	5.68247	0.830839	0.55987
C	5.21736	-0.390079	0.119214
N	6.20162	-1.09856	-0.485603
C	7.27326	-0.320124	-0.420406
N	7.01165	0.854281	0.200822
H	5.17847	1.6571	1.086
H	4.18923	-0.772446	0.226856
H	8.27478	-0.561077	-0.81171
H	7.69177	1.63411	0.375653
