18
  This energy is -1.1583 and Call times are: 70750
C	0.50979	0.760273	-0.669701
C	0.87817	0.567938	0.629406
C	0.0173479	-0.454752	1.1326
C	-0.801076	-0.797089	0.0965711
O	-0.514313	-0.0650054	-1.01196
H	0.892755	1.44447	-1.4446
H	1.67605	1.09351	1.17828
H	0.0150967	-0.879763	2.14919
H	-1.61586	-1.53586	0.0218236
C	5.3229	1.15404	0.195373
C	6.09679	0.367759	-0.63166
N	5.67373	-0.91962	-0.618225
C	4.6413	-0.931943	0.213979
N	4.38993	0.29423	0.730605
H	5.36854	2.22875	0.432989
H	6.95284	0.706311	-1.23781
H	4.03373	-1.81165	0.480842
H	3.62925	0.542607	1.40953
