18
  This energy is -1.5001 and Call times are: 101153
C	1.05083	0.426015	0.0257065
C	0.653695	-0.588529	0.846289
C	-0.713629	-0.842396	0.520568
C	-1.03134	0.0394231	-0.470305
O	0.0344214	0.821808	-0.785013
H	2.01653	0.947628	-0.0772388
H	1.26253	-1.1062	1.60486
H	-1.37571	-1.59603	0.976385
H	-1.96814	0.207805	-1.02646
C	5.01977	-0.134039	-1.16907
C	5.81282	0.708554	-0.419235
N	5.52184	0.607576	0.900479
C	4.55196	-0.294232	0.969092
N	4.21378	-0.771231	-0.252259
H	4.97348	-0.319137	-2.25403
H	6.58974	1.38753	-0.806832
H	4.05363	-0.642213	1.88822
H	3.47782	-1.48959	-0.461023
