18
  This energy is -0.7273 and Call times are: 198243
C	0.587876	-0.50599	0.827513
C	-0.183812	-1.20552	-0.0531285
C	-0.75531	-0.233581	-0.929965
C	-0.282407	0.974087	-0.507741
O	0.539357	0.826504	0.56461
H	1.21189	-0.8352	1.67455
H	-0.335394	-2.29651	-0.0823376
H	-1.4381	-0.421164	-1.77419
H	-0.453575	1.99723	-0.880732
C	6.17817	0.961214	0.0353406
C	6.51322	-0.269063	-0.48935
N	5.49091	-1.14948	-0.361849
C	4.52531	-0.467982	0.239652
N	4.89087	0.809555	0.500152
H	6.74576	1.90251	0.108417
H	7.4743	-0.537201	-0.957624
H	3.53074	-0.855934	0.512675
H	4.30524	1.5445	0.967216
