18
  This energy is -1.1983 and Call times are: 140373
C	0.596857	0.16095	-0.950925
C	-0.559834	0.835608	-0.691545
C	-1.00869	0.367285	0.58098
C	-0.0866628	-0.552216	0.986888
O	0.900833	-0.690845	0.0634995
H	1.2873	0.196745	-1.80956
H	-1.04801	1.58762	-1.33206
H	-1.91407	0.68399	1.12327
H	-0.0207593	-1.16805	1.89884
C	4.48158	-0.795543	0.608084
C	4.0638	0.461906	0.226741
N	5.03347	1.11081	-0.462591
C	6.04894	0.259167	-0.508715
N	5.76559	-0.904716	0.122695
H	3.97301	-1.59379	1.17172
H	3.08008	0.912548	0.436645
H	7.02315	0.436915	-0.991995
H	6.40264	-1.73254	0.223316
