18
  This energy is -0.6669 and Call times are: 84920
C	-0.246824	-1.10443	0.0755175
C	-1.20885	-0.1378	0.0979035
C	-0.516208	1.10593	-0.0182846
C	0.807934	0.78953	-0.101415
O	0.990734	-0.556016	-0.045727
H	-0.312782	-2.20312	0.137154
H	-2.29707	-0.285751	0.187271
H	-0.960623	2.11402	-0.0369127
H	1.70572	1.42138	-0.201443
C	6.42427	-0.570457	0.102674
C	5.34989	-0.637272	0.964289
N	4.33282	0.150971	0.539129
C	4.77457	0.704685	-0.581981
N	6.03054	0.301427	-0.88777
H	7.40833	-1.06515	0.123549
H	5.29037	-1.24012	1.8851
H	4.21939	1.41245	-1.21844
H	6.59655	0.596692	-1.72066
