18
  This energy is -1.2423 and Call times are: 24853
C	-1.11902	-0.0407674	0.180388
C	-0.211089	-0.349681	1.15024
C	1.07422	-0.182472	0.550128
C	0.838265	0.213861	-0.733468
O	-0.495713	0.305626	-0.976555
H	-2.22131	-0.0287928	0.187926
H	-0.425007	-0.663789	2.18449
H	2.05499	-0.341159	1.02658
H	1.52435	0.458491	-1.56093
C	5.80072	-0.164163	0.931197
C	5.37891	-1.12229	0.033865
N	4.57868	-0.582388	-0.917265
C	4.50434	0.705786	-0.611152
N	5.22409	1.00788	0.49532
H	6.44881	-0.231195	1.81947
H	5.63765	-2.19347	0.0556989
H	3.93687	1.47205	-1.16347
H	5.32387	1.95457	0.937005
