18
  This energy is -0.8931 and Call times are: 82039
C	-0.134235	0.09419	-1.12228
C	-1.17464	0.219119	-0.249172
C	-0.615888	0.0400536	1.05307
C	0.716643	-0.178491	0.860793
O	1.02834	-0.148847	-0.461697
H	-0.0912637	0.156279	-2.22207
H	-2.22973	0.417469	-0.497271
H	-1.15161	0.0719641	2.0154
H	1.53707	-0.365554	1.57294
C	5.10648	0.975373	0.58293
C	4.20602	0.88137	-0.457008
N	4.09475	-0.396939	-0.892963
C	4.92303	-1.09332	-0.126393
N	5.5567	-0.311078	0.779233
H	5.44739	1.83792	1.17736
H	3.63464	1.71301	-0.900561
H	5.10384	-2.17869	-0.185604
H	6.25745	-0.6248	1.49462
