18
  This energy is -0.6958 and Call times are: 122375
C	-0.0110389	-1.00965	-0.516603
C	0.76501	0.0245536	-0.950812
C	0.507665	1.10856	-0.057047
C	-0.402925	0.641084	0.84443
O	-0.730923	-0.650771	0.578834
H	-0.138847	-2.03699	-0.895401
H	1.44997	0.0241248	-1.81391
H	0.953421	2.11571	-0.0893918
H	-0.888804	1.12203	1.70922
C	5.60018	0.87841	-0.783256
C	4.73673	-0.195894	-0.744902
N	5.0244	-1.01714	0.294003
C	6.06236	-0.454448	0.897861
N	6.44704	0.690771	0.286237
H	5.66962	1.73461	-1.47293
H	3.91135	-0.393138	-1.44824
H	6.57952	-0.838933	1.7917
H	7.23943	1.31653	0.572248
