18
  This energy is -1.8438 and Call times are: 100538
C	0.432317	-0.780632	0.700083
C	0.00525028	-1.08507	-0.559006
C	-0.464453	0.14169	-1.11986
C	-0.282952	1.08749	-0.153996
O	0.26373	0.541801	0.964208
H	0.869804	-1.40664	1.49505
H	0.0195524	-2.07427	-1.04415
H	-0.886737	0.292747	-2.12632
H	-0.49901	2.16839	-0.139408
C	4.33289	-0.752702	-0.88916
C	5.3301	0.19349	-0.782284
N	5.22198	0.888659	0.375973
C	4.16171	0.375682	0.98533
N	3.59075	-0.617061	0.262801
H	4.10639	-1.48843	-1.67716
H	6.12567	0.387012	-1.52017
H	3.7598	0.689787	1.96208
H	2.74404	-1.17679	0.529354
