18
  This energy is -1.0441 and Call times are: 7743
C	0.755496	-0.737652	-0.41412
C	1.12671	0.437461	0.170418
C	-0.087505	1.08176	0.558592
C	-1.09352	0.243494	0.176995
O	-0.596836	-0.872519	-0.418684
H	1.34967	-1.55218	-0.859938
H	2.15265	0.812904	0.313861
H	-0.190164	2.05608	1.06284
H	-2.1888	0.325448	0.271282
C	6.12406	0.936689	0.482772
C	6.51967	0.260423	-0.651822
N	5.68409	-0.771793	-0.921729
C	4.77358	-0.736023	0.0417569
N	4.99518	0.276165	0.913511
H	6.5517	1.81204	0.996994
H	7.39304	0.498811	-1.2805
H	3.9231	-1.42723	0.156501
H	4.41718	0.512704	1.75685
