18
  This energy is -1.1965 and Call times are: 191018
C	-0.413857	-0.104211	-1.05084
C	0.92438	-0.0354723	-0.796337
C	1.04687	0.0897928	0.621205
C	-0.227332	0.0865428	1.1078
O	-1.13213	-0.0311975	0.100582
H	-0.97434	-0.204455	-1.9948
H	1.74313	-0.0695574	-1.53293
H	1.97947	0.172141	1.2022
H	-0.617387	0.160593	2.13621
C	4.82792	0.510409	0.993041
C	4.61985	0.956522	-0.294918
N	5.18883	0.122433	-1.19884
C	5.74775	-0.837475	-0.474398
N	5.55798	-0.648721	0.852986
H	4.51845	0.922035	1.96686
H	4.06938	1.86528	-0.588138
H	6.30796	-1.70223	-0.865042
H	5.90153	-1.26748	1.62782
