18
  This energy is -0.427 and Call times are: 167578
C	-0.844472	-0.558367	0.511366
C	-0.943427	-0.097044	-0.768385
C	0.302559	0.541384	-1.05131
C	1.05293	0.413836	0.0805276
O	0.368063	-0.255193	1.04509
H	-1.55679	-1.10965	1.14693
H	-1.80719	-0.196363	-1.44525
H	0.596935	1.03548	-1.99115
H	2.07427	0.75086	0.322428
C	7.50583	0.61025	-0.0314442
C	7.27355	-0.631253	-0.584489
N	6.00045	-1.03668	-0.35786
C	5.44505	-0.0504435	0.333151
N	6.31199	0.965688	0.555584
H	8.40617	1.24479	-0.014636
H	8.00175	-1.24171	-1.14297
H	4.40688	-0.0208564	0.701337
H	6.1127	1.85487	1.07606
