18
  This energy is -0.8602 and Call times are: 161989
C	0.959888	-0.199037	0.570438
C	-0.186203	-0.901468	0.801605
C	-1.15945	-0.368744	-0.0978981
C	-0.522186	0.6122	-0.799333
O	0.772837	0.729508	-0.404153
H	1.96142	-0.263404	1.02656
H	-0.331665	-1.71331	1.53225
H	-2.20954	-0.685425	-0.203332
H	-0.874837	1.28907	-1.59478
C	5.67736	0.684944	-0.879515
C	4.72684	-0.310977	-0.955645
N	4.53709	-0.898584	0.250682
C	5.36675	-0.269591	1.07206
N	6.07651	0.693867	0.438357
H	6.08441	1.36526	-1.64438
H	4.17455	-0.616063	-1.85939
H	5.49459	-0.474586	2.14717
H	6.79414	1.32702	0.868916
