18
  This energy is -1.1396 and Call times are: 55897
C	-0.225091	1.10849	-0.0835556
C	-1.20718	0.172116	0.054548
C	-0.538648	-1.08809	0.125771
C	0.792959	-0.810553	0.0249031
O	1.00266	0.526059	-0.10356
H	-0.269271	2.20606	-0.17658
H	-2.29343	0.350892	0.101549
H	-1.00349	-2.08066	0.238972
H	1.67898	-1.46643	0.0309776
C	4.33586	-0.52842	1.03871
C	4.64453	-1.13672	-0.159551
N	4.762	-0.224369	-1.1547
C	4.5271	0.945483	-0.576003
N	4.26504	0.815289	0.746104
H	4.16722	-0.942821	2.04538
H	4.78458	-2.21757	-0.323863
H	4.53427	1.9285	-1.07385
H	4.04906	1.59029	1.41989
