18
  This energy is -0.8531 and Call times are: 151698
C	-0.755081	0.395302	-0.748325
C	-0.855185	-0.848327	-0.197199
C	0.263	-0.977505	0.682058
C	0.947701	0.198588	0.590615
O	0.340103	1.04861	-0.278463
H	-1.39023	0.925381	-1.47692
H	-1.63792	-1.59938	-0.390444
H	0.519608	-1.84862	1.30607
H	1.8684	0.548929	1.08541
C	6.39102	0.141382	0.418077
C	5.55191	1.12782	-0.0551975
N	4.36677	0.609064	-0.458749
C	4.47026	-0.694238	-0.236671
N	5.67211	-1.02624	0.291453
H	7.41471	0.186172	0.82253
H	5.78041	2.20454	-0.112707
H	3.69598	-1.4508	-0.442458
H	5.99481	-1.98956	0.554369
