18
  This energy is -0.892 and Call times are: 33766
C	0.927993	-0.106237	-0.643384
C	-0.12442	-0.969424	-0.73118
C	-1.0849	-0.513208	0.222475
C	-0.534636	0.588493	0.808851
O	0.694537	0.851505	0.292159
H	1.88777	-0.0661637	-1.18419
H	-0.215252	-1.84007	-1.40037
H	-2.06849	-0.959808	0.439703
H	-0.911275	1.26335	1.59496
C	4.51697	0.876819	-0.525703
C	5.06313	-0.234426	-1.13233
N	5.66386	-1.04121	-0.224182
C	5.49104	-0.432792	0.941399
N	4.80525	0.727671	0.81252
H	3.96208	1.73458	-0.937858
H	5.03448	-0.468493	-2.20901
H	5.84623	-0.793281	1.92023
H	4.54309	1.38798	1.58487
