18
  This energy is -1.1201 and Call times are: 197268
C	-0.0366482	-0.074126	-1.13118
C	-0.237618	-1.15326	-0.321578
C	-0.114313	-0.667083	1.01579
C	0.151121	0.666231	0.905372
O	0.20212	1.04546	-0.398697
H	-0.0375809	0.0265252	-2.22896
H	-0.451259	-2.18786	-0.634729
H	-0.213343	-1.24978	1.94571
H	0.321755	1.44335	1.6684
C	5.68627	0.795384	-0.366389
C	5.95204	-0.398846	0.269477
N	4.80768	-1.06862	0.549411
C	3.83568	-0.292848	0.0889595
N	4.31415	0.842759	-0.472341
H	6.35418	1.58842	-0.738577
H	6.949	-0.789196	0.531277
H	2.75608	-0.50829	0.13682
H	3.74778	1.61263	-0.90568
