18
  This energy is -1.2208 and Call times are: 183576
C	0.44796	0.21045	1.02051
C	0.527093	1.10089	-0.00964485
C	-0.143232	0.485618	-1.11065
C	-0.572818	-0.726497	-0.656112
O	-0.220459	-0.911165	0.643408
H	0.821757	0.255989	2.05659
H	1.00915	2.09161	0.00437846
H	-0.284242	0.904442	-2.12001
H	-1.13171	-1.53705	-1.15198
C	5.64521	0.691177	0.118067
C	4.33731	1.09786	-0.0405242
N	3.50426	0.0341972	-0.146175
C	4.29237	-1.02831	-0.0534784
N	5.59233	-0.684782	0.106772
H	6.57871	1.26443	0.234287
H	3.97984	2.13971	-0.0806066
H	3.96966	-2.08103	-0.0966519
H	6.40508	-1.34148	0.203908
