18
  This energy is -1.4174 and Call times are: 200142
C	-0.212281	0.819398	0.754934
C	-0.976584	-0.306705	0.664908
C	-0.403086	-1.0855	-0.386139
C	0.661047	-0.366555	-0.845609
O	0.792372	0.79957	-0.160103
H	-0.278624	1.69687	1.41894
H	-1.856	-0.563218	1.27721
H	-0.749443	-2.06589	-0.750772
H	1.39267	-0.5727	-1.64403
C	4.36716	-0.851607	0.350436
C	5.73963	-0.835136	0.481559
N	6.26599	0.302842	-0.0327005
C	5.22402	0.989729	-0.48115
N	4.05651	0.335968	-0.273543
H	3.61465	-1.59944	0.647103
H	6.35949	-1.62398	0.938015
H	5.25945	1.97669	-0.969912
H	3.0974	0.670093	-0.537599
