18
  This energy is -1.1983 and Call times are: 13326
C	0.138837	0.271562	-1.09242
C	-0.101172	1.20929	-0.131458
C	-0.21581	0.489719	1.09704
C	-0.0357325	-0.824199	0.778344
O	0.182049	-0.975772	-0.554551
H	0.295015	0.362534	-2.17989
H	-0.188708	2.29844	-0.273462
H	-0.409899	0.910047	2.09691
H	-0.0390609	-1.73443	1.40021
C	3.76914	0.00660509	0.567785
C	4.32131	1.04149	-0.15697
N	5.52135	0.687547	-0.677683
C	5.71292	-0.562159	-0.277487
N	4.68452	-1.01804	0.476273
H	2.8212	-0.0706347	1.12365
H	3.8753	2.03719	-0.313481
H	6.58871	-1.18999	-0.507826
H	4.6005	-1.97056	0.908601
