18
  This energy is -1.103 and Call times are: 181139
C	0.738462	0.543126	-0.667899
C	0.843611	0.547135	0.691992
C	-0.252516	-0.233235	1.17121
C	-0.930728	-0.645228	0.0618547
O	-0.339477	-0.180279	-1.07007
H	1.35853	1.01035	-1.45051
H	1.61561	1.04925	1.29696
H	-0.499357	-0.456464	2.2216
H	-1.83582	-1.26381	-0.0539736
C	4.61424	0.566313	0.910177
C	4.4633	0.866424	-0.427095
N	5.16587	0.00595427	-1.20331
C	5.75044	-0.824809	-0.350818
N	5.44894	-0.528596	0.935629
H	4.20054	1.03866	1.81532
H	3.86005	1.68841	-0.845752
H	6.40947	-1.66752	-0.614919
H	5.78667	-1.03628	1.78971
