18
  This energy is -0.9901 and Call times are: 53325
C	-0.129156	0.397052	-1.05455
C	0.781115	-0.57029	-0.744659
C	0.645928	-0.799234	0.658704
C	-0.335019	0.0484144	1.08251
O	-0.819579	0.786544	0.0493657
H	-0.379167	0.886521	-2.01014
H	1.47787	-1.07227	-1.43505
H	1.21703	-1.51401	1.27273
H	-0.77313	0.219332	2.07955
C	4.45298	-0.00614213	-0.909407
C	5.1157	1.08585	-0.390265
N	5.89776	0.729981	0.657711
C	5.72088	-0.577807	0.788208
N	4.8587	-1.06879	-0.133295
H	3.74499	-0.0991379	-1.74823
H	5.04355	2.12411	-0.753104
H	6.19819	-1.22493	1.54163
H	4.55682	-2.0685	-0.236815
