18
  This energy is -0.7978 and Call times are: 189445
C	-0.099062	0.708722	-0.879944
C	0.806464	-0.311115	-0.861807
C	0.629787	-0.968581	0.393837
C	-0.368108	-0.292474	1.03216
O	-0.824867	0.734955	0.268764
H	-0.322428	1.47466	-1.64067
H	1.5266	-0.574035	-1.65325
H	1.1857	-1.84261	0.769508
H	-0.837304	-0.441338	2.01854
C	4.5547	-0.237684	0.129992
C	5.35187	-0.569416	-0.945012
N	6.62387	-0.139659	-0.761104
C	6.61586	0.456415	0.423486
N	5.39148	0.423736	1.00092
H	3.4868	-0.41942	0.33019
H	5.03198	-1.11115	-1.85002
H	7.4788	0.933402	0.915463
H	5.12954	0.825671	1.93424
