18
  This energy is -0.9024 and Call times are: 183448
C	-1.1182	-0.159438	0.102994
C	-0.283131	-0.12381	1.18085
C	1.02666	0.0923167	0.653715
C	0.876354	0.169682	-0.699723
O	-0.427021	0.0180874	-1.05362
H	-2.20868	-0.302205	0.0274056
H	-0.561556	-0.238245	2.24079
H	1.96567	0.17877	1.22369
H	1.60831	0.327634	-1.50876
C	6.47365	0.643312	0.801356
C	6.96698	-0.436064	0.0994179
N	6.03223	-0.939943	-0.742524
C	4.96308	-0.176066	-0.563584
N	5.17881	0.792956	0.35731
H	6.93692	1.29383	1.56013
H	7.98064	-0.860275	0.185398
H	3.99601	-0.282325	-1.081
H	4.49078	1.51978	0.67291
