18
  This energy is -1.5147 and Call times are: 150461
C	0.291465	-1.07967	0.189121
C	0.442535	-0.106309	1.13259
C	-0.0286664	1.09953	0.529236
C	-0.426084	0.7566	-0.729663
O	-0.237693	-0.570429	-0.954417
H	0.519497	-2.15804	0.208205
H	0.845376	-0.225502	2.15122
H	-0.0638029	2.10116	0.987058
H	-0.853683	1.35604	-1.55008
C	3.80424	-0.831672	-0.245302
C	4.96401	-0.985594	0.484336
N	5.64578	0.182434	0.570417
C	4.91175	1.05764	-0.103257
N	3.7912	0.494895	-0.614407
H	3.01363	-1.54836	-0.518872
H	5.32106	-1.91852	0.950194
H	5.14828	2.12336	-0.253318
H	3.05311	0.977229	-1.18347
