18
  This energy is -0.8805 and Call times are: 71140
C	0.494357	1.0087	0.156628
C	-0.359973	0.766877	-0.878753
C	-0.768255	-0.594693	-0.738927
C	-0.127377	-1.06471	0.369556
O	0.647963	-0.0988884	0.929066
H	1.05042	1.91443	0.449374
H	-0.671415	1.47615	-1.66235
H	-1.45919	-1.15099	-1.39256
H	-0.139402	-2.05347	0.856858
C	5.50151	-0.413188	-0.756275
C	4.75917	-1.14625	0.145218
N	3.93049	-0.347022	0.860089
C	4.15788	0.877206	0.403818
N	5.09689	0.890043	-0.571731
H	6.26366	-0.716569	-1.49154
H	4.80666	-2.23752	0.292627
H	3.6645	1.8001	0.748888
H	5.44951	1.73229	-1.08897
