18
  This energy is -0.4761 and Call times are: 166826
C	0.974886	-0.307783	-0.491189
C	0.210386	0.717803	-0.964564
C	-0.918699	0.798214	-0.0934616
C	-0.744493	-0.185333	0.835334
O	0.406798	-0.870678	0.607645
H	1.93117	-0.729238	-0.842125
H	0.420472	1.35389	-1.83941
H	-1.75809	1.50904	-0.158624
H	-1.35922	-0.494904	1.69645
C	5.69787	0.856357	-0.398445
C	5.3186	-0.411045	-0.0098702
N	6.38783	-1.13829	0.395563
C	7.42647	-0.325142	0.259027
N	7.06242	0.889335	-0.216473
H	5.11282	1.70872	-0.778893
H	4.29261	-0.813748	-0.0147951
H	8.47559	-0.568112	0.492586
H	7.69845	1.70136	-0.409703
