18
  This energy is -1.2008 and Call times are: 179298
C	-1.09121	0.173685	0.255931
C	-0.211917	-0.376751	1.14151
C	1.04359	-0.432094	0.462715
C	0.820689	0.0894084	-0.777738
O	-0.477645	0.464536	-0.921336
H	-2.16518	0.4072	0.341389
H	-0.425959	-0.710342	2.16961
H	1.99653	-0.817126	0.859888
H	1.49363	0.245919	-1.63675
C	5.62747	-1.09384	0.0766189
C	4.59304	-0.664086	-0.727368
N	4.36398	0.66134	-0.562164
C	5.25294	1.05235	0.340878
N	6.03811	0.0306619	0.757098
H	6.08518	-2.08717	0.208287
H	4.00787	-1.28664	-1.42368
H	5.3724	2.07522	0.732937
H	6.81221	0.0848159	1.46357
