18
  This energy is -0.8873 and Call times are: 104064
C	-0.239287	1.05951	0.32647
C	0.745993	0.777446	-0.573551
C	0.742354	-0.642828	-0.724963
C	-0.244828	-1.1033	0.0958985
O	-0.854787	-0.0773137	0.745762
H	-0.595597	2.01514	0.74488
H	1.40885	1.49731	-1.08002
H	1.40183	-1.24309	-1.37216
H	-0.606202	-2.12384	0.303634
C	6.55536	0.686373	0.0356608
C	6.48748	-0.614541	-0.416179
N	5.22733	-1.10237	-0.3134
C	4.51616	-0.107874	0.200249
N	5.27157	0.992499	0.428548
H	7.39826	1.39241	0.103173
H	7.32519	-1.20988	-0.814498
H	3.43856	-0.131792	0.429246
H	4.94208	1.90499	0.828619
