18
  This energy is -1.0048 and Call times are: 132104
C	0.444156	-0.712009	0.763001
C	-0.273981	0.390062	1.12369
C	-0.658204	1.0233	-0.0975839
C	-0.140943	0.252285	-1.09676
O	0.535372	-0.811719	-0.589312
H	0.936211	-1.49331	1.36525
H	-0.509515	0.72362	2.14709
H	-1.25087	1.94544	-0.209342
H	-0.183497	0.352064	-2.1938
C	5.6663	-0.498082	-0.00145489
C	4.64197	-0.733141	-0.893993
N	3.55177	0.0140222	-0.594431
C	3.89847	0.709954	0.479863
N	5.16406	0.436562	0.876256
H	6.6832	-0.915836	0.0688794
H	4.67002	-1.42847	-1.74874
H	3.26411	1.43382	1.01637
H	5.6669	0.85656	1.69602
