18
  This energy is -0.6109 and Call times are: 65968
C	0.840272	0.50835	-0.567383
C	0.880972	-0.812759	-0.23065
C	-0.338485	-1.0768	0.464566
C	-1.01673	0.106268	0.491297
O	-0.311561	1.08521	-0.134343
H	1.55786	1.14762	-1.10744
H	1.6887	-1.52944	-0.449837
H	-0.664235	-2.0389	0.891578
H	-1.9959	0.378149	0.918562
C	5.79714	0.0364302	-1.13668
C	5.08391	-0.542474	-0.108423
N	5.72838	-0.398359	1.07496
C	6.83722	0.267418	0.781952
N	6.92497	0.55289	-0.538804
H	5.58888	0.11481	-2.21558
H	4.11583	-1.06155	-0.199217
H	7.61909	0.571651	1.49634
H	7.70377	1.06926	-1.01638
