18
  This energy is -0.7366 and Call times are: 94664
C	-0.389023	1.04	-0.231211
C	0.294404	0.753646	0.91391
C	0.611774	-0.637139	0.842422
C	0.0942699	-1.0779	-0.340073
O	-0.520436	-0.0669126	-1.0087
H	-0.828298	1.97948	-0.60493
H	0.549456	1.45176	1.72734
H	1.16182	-1.23175	1.58941
H	0.0965835	-2.07356	-0.81326
C	5.13171	0.792055	0.73379
C	4.54557	-0.375448	0.292747
N	5.36979	-1.04966	-0.545466
C	6.4631	-0.303263	-0.624128
N	6.36868	0.817914	0.129288
H	4.76824	1.58003	1.41241
H	3.54272	-0.743388	0.564337
H	7.36246	-0.530825	-1.21878
H	7.09868	1.56462	0.23315
