18
  This energy is -0.6585 and Call times are: 119674
C	-1.07355	0.321738	0.174266
C	-0.531579	0.231438	-1.07413
C	0.817346	-0.198216	-0.884615
C	0.980602	-0.332544	0.462855
O	-0.164121	-0.0190802	1.12494
H	-2.0809	0.612639	0.514677
H	-1.03154	0.445877	-2.03233
H	1.5712	-0.383137	-1.66667
H	1.85015	-0.639464	1.06695
C	5.51407	0.904801	-0.472354
C	5.00011	-0.330578	-0.139448
N	5.95822	-1.13355	0.383787
C	7.06237	-0.399101	0.375513
N	6.84651	0.837887	-0.131297
H	5.04169	1.79705	-0.913123
H	3.95513	-0.656894	-0.267427
H	8.05618	-0.717963	0.728941
H	7.55851	1.60065	-0.243124
