18
  This energy is -0.7265 and Call times are: 19091
C	0.42878	0.957637	-0.430674
C	1.21386	-0.00774115	0.127958
C	0.322542	-1.04138	0.548993
C	-0.928526	-0.61639	0.210482
O	-0.882385	0.602528	-0.388786
H	0.678444	1.92968	-0.886801
H	2.31061	0.00659162	0.233004
H	0.590816	-1.9878	1.04539
H	-1.91904	-1.08255	0.340182
C	5.27603	0.70124	-0.199063
C	6.53453	1.08717	0.211277
N	7.35553	0.0169148	0.341739
C	6.6092	-1.02899	0.0135818
N	5.34736	-0.668581	-0.320268
H	4.36511	1.28498	-0.406481
H	6.86483	2.11868	0.415535
H	6.93665	-2.08106	0.000717113
H	4.57123	-1.31036	-0.61524
