18
  This energy is -1.1773 and Call times are: 84727
C	0.292378	0.276993	-1.06028
C	0.428196	1.14294	-0.0152569
C	-0.0389462	0.440848	1.13755
C	-0.41899	-0.792152	0.695229
O	-0.223554	-0.909599	-0.644556
H	0.523521	0.383585	-2.13287
H	0.818213	2.17279	-0.0524676
H	-0.0831344	0.818116	2.17187
H	-0.837829	-1.66245	1.22665
C	4.89124	-1.16829	0.141786
C	3.84621	-0.379283	-0.290102
N	4.20643	0.926322	-0.336472
C	5.47012	0.947192	0.0651224
N	5.92888	-0.291012	0.365092
H	4.9674	-2.25571	0.300726
H	2.83877	-0.728691	-0.569078
H	6.10655	1.84194	0.157942
H	6.89159	-0.536048	0.703329
