18
  This energy is -1.3943 and Call times are: 60242
C	-0.145375	-1.10774	0.195392
C	-0.604124	-0.148905	1.05012
C	-0.234141	1.10231	0.469013
C	0.418038	0.797625	-0.689521
O	0.481432	-0.547561	-0.872467
H	-0.200667	-2.20808	0.233404
H	-1.14845	-0.306875	1.99503
H	-0.434571	2.10734	0.873786
H	0.877542	1.43823	-1.46006
C	3.79889	1.08456	-0.218926
C	4.40162	0.64348	0.940087
N	4.73922	-0.66571	0.847582
C	4.34742	-1.03541	-0.364212
N	3.77453	-0.0157129	-1.04657
H	3.39893	2.07067	-0.503824
H	4.59893	1.24644	1.8414
H	4.45578	-2.04062	-0.802426
H	3.38584	-0.0556661	-2.02052
