18
  This energy is -0.8989 and Call times are: 63736
C	0.557794	0.914405	-0.373002
C	1.06668	0.0894222	0.586588
C	0.0875512	-0.931628	0.783768
C	-0.933232	-0.64046	-0.0727346
O	-0.662898	0.483695	-0.787022
H	0.960689	1.82781	-0.840574
H	2.03447	0.189822	1.1037
H	0.145245	-1.78029	1.48416
H	-1.8927	-1.14775	-0.26595
C	6.19923	0.732035	-0.458753
C	5.08284	0.225196	-1.08958
N	4.38195	-0.588722	-0.263257
C	5.06094	-0.586822	0.875861
N	6.1648	0.194565	0.808578
H	6.98939	1.41439	-0.810279
H	4.77055	0.432219	-2.12614
H	4.79436	-1.13999	1.79083
H	6.86165	0.359534	1.57568
