18
  This energy is -0.8758 and Call times are: 126494
C	0.685316	-0.724839	0.53977
C	0.698014	-0.579801	-0.816392
C	-0.289346	0.408718	-1.11316
C	-0.818244	0.780486	0.0878553
O	-0.234706	0.0982563	1.10818
H	1.27369	-1.3713	1.21144
H	1.33843	-1.11521	-1.53563
H	-0.566677	0.792128	-2.10823
H	-1.60368	1.50945	0.346612
C	4.94689	0.373484	0.905013
C	4.60755	-0.594356	-0.0165503
N	5.59765	-0.773124	-0.924443
C	6.5476	0.0805683	-0.567469
N	6.20297	0.795102	0.52992
H	4.40161	0.778528	1.77228
H	3.66606	-1.16686	-0.0426224
H	7.51541	0.223319	-1.07462
H	6.78225	1.53021	1.00458
