18
  This energy is -1.0623 and Call times are: 69210
C	1.03212	-0.108441	0.457578
C	0.231387	-1.18187	0.19882
C	-0.967024	-0.648486	-0.36636
C	-0.792835	0.703802	-0.403082
O	0.422491	1.05121	0.0962212
H	2.04321	-0.0382177	0.891168
H	0.461555	-2.24285	0.38706
H	-1.85077	-1.21369	-0.70345
H	-1.44921	1.51618	-0.755884
C	4.73563	-0.0358355	-0.970787
C	5.8457	0.753432	-0.756421
N	6.36762	0.538375	0.475596
C	5.58431	-0.380813	1.02346
N	4.58564	-0.759519	0.191096
H	4.0642	-0.130572	-1.83897
H	6.27937	1.4742	-1.46865
H	5.69682	-0.81179	2.03134
H	3.83928	-1.46921	0.392469
