18
  This energy is -1.3014 and Call times are: 174084
C	-0.100133	-1.1254	-0.099267
C	1.11085	-0.49787	-0.0895437
C	0.828187	0.895296	0.0494034
C	-0.53058	0.996127	0.112323
O	-1.11363	-0.228249	0.0230536
H	-0.370985	-2.19044	-0.186255
H	2.1036	-0.968792	-0.171951
H	1.55819	1.71931	0.0961462
H	-1.19474	1.86953	0.218667
C	5.4179	-0.925354	0.595123
C	5.40107	-0.760879	-0.773748
N	4.84556	0.42677	-1.11639
C	4.51901	0.996912	0.0355284
N	4.84372	0.221257	1.0969
H	5.78558	-1.7497	1.22663
H	5.77981	-1.47789	-1.52028
H	4.03993	1.98151	0.15914
H	4.68778	0.449789	2.10918
