18
  This energy is -0.7771 and Call times are: 5922
C	-0.21771	-0.515719	-0.986427
C	-1.17556	-0.326776	-0.0339615
C	-0.526147	0.346365	1.04551
C	0.771228	0.509347	0.6574
O	0.977327	-0.0112506	-0.580951
H	-0.259227	-0.988747	-1.9813
H	-2.23333	-0.630914	-0.086285
H	-0.980279	0.667907	1.99654
H	1.63331	0.972928	1.1645
C	5.14131	-0.40304	-0.696632
C	4.99247	0.21995	0.524382
N	6.19508	0.553389	1.05263
C	7.0866	0.138833	0.162708
N	6.50108	-0.444554	-0.909868
H	4.40053	-0.806323	-1.40525
H	4.03887	0.434811	1.03364
H	8.18091	0.23731	0.24651
H	6.98984	-0.851044	-1.74482
