18
  This energy is -1.5858 and Call times are: 28446
C	0.502533	0.0553229	1.01528
C	0.373459	-1.11512	0.326976
C	-0.301846	-0.782461	-0.886867
C	-0.525827	0.561906	-0.833168
O	-0.0411289	1.08982	0.321556
H	0.955077	0.281397	1.99475
H	0.719117	-2.11269	0.642388
H	-0.583879	-1.47081	-1.69971
H	-1.0129	1.25085	-1.54265
C	3.9973	-0.692027	-0.946385
C	3.74984	-1.04069	0.364472
N	3.97025	0.00476988	1.19811
C	4.353	0.998223	0.407424
N	4.38524	0.628207	-0.894743
H	3.92712	-1.27068	-1.88115
H	3.4162	-2.02786	0.723666
H	4.62149	2.01717	0.729735
H	4.65448	1.232	-1.70973
