18
  This energy is -0.9591 and Call times are: 11646
C	-0.698792	0.892073	0.0479194
C	0.0643181	0.620116	-1.04938
C	0.797914	-0.563576	-0.73185
C	0.418333	-0.910463	0.531464
O	-0.495197	-0.032472	1.023
H	-1.41704	1.70194	0.256467
H	0.106409	1.19535	-1.98823
H	1.52188	-1.08858	-1.37555
H	0.720812	-1.74759	1.18183
C	5.37794	0.113427	1.17121
C	4.29156	0.0739669	0.323063
N	4.68342	-0.0651767	-0.966741
C	6.00787	-0.111859	-0.918932
N	6.47495	-0.00818658	0.347826
H	5.44577	0.216023	2.26593
H	3.23201	0.143403	0.618684
H	6.68464	-0.220985	-1.78166
H	7.48107	-0.0184866	0.645942
