18
  This energy is -1.9185 and Call times are: 196114
C	-0.480865	0.4392	-0.928587
C	-0.436861	-0.903783	-0.694418
C	0.237313	-1.06095	0.554944
C	0.545772	0.19987	0.973953
O	0.114604	1.12838	0.0801031
H	-0.901778	1.02224	-1.76414
H	-0.838824	-1.70353	-1.33701
H	0.46199	-2.00677	1.07362
H	1.06291	0.564229	1.87676
C	4.88026	-0.547835	1.03852
C	5.91635	-0.243822	0.181062
N	5.46311	0.390397	-0.92747
C	4.15082	0.479497	-0.758357
N	3.75032	-0.0717398	0.411825
H	4.8675	-1.05245	2.01767
H	6.98281	-0.47074	0.342419
H	3.43605	0.93859	-1.46019
H	2.76649	-0.126095	0.772901
