18
  This energy is -0.7512 and Call times are: 117530
C	-0.919121	0.582218	0.320375
C	-0.800654	0.0293339	-0.920858
C	0.475861	-0.61107	-0.943418
C	1.02477	-0.392996	0.28602
O	0.186535	0.334102	1.07069
H	-1.72889	1.168	0.785548
H	-1.53819	0.0685375	-1.73854
H	0.924835	-1.16712	-1.78206
H	1.99115	-0.698268	0.719804
C	6.38847	-0.653445	0.69578
C	5.06846	-0.320651	0.914779
N	4.58418	0.445776	-0.092482
C	5.5999	0.587912	-0.933162
N	6.71037	-0.0563081	-0.502552
H	7.09788	-1.25295	1.28812
H	4.45684	-0.619831	1.78153
H	5.58497	1.15338	-1.87881
H	7.63953	-0.0937688	-0.988885
