18
  This energy is -0.9714 and Call times are: 187494
C	0.803142	-0.12333	0.791299
C	1.04872	0.468855	-0.412603
C	-0.1896	0.437282	-1.12371
C	-1.08259	-0.17141	-0.291581
O	-0.493412	-0.520412	0.882335
H	1.45751	-0.319835	1.65642
H	2.00588	0.886058	-0.76459
H	-0.383461	0.825138	-2.13667
H	-2.15123	-0.411845	-0.415892
C	7.22995	-0.798319	0.854924
C	6.14478	-0.652503	0.0168848
N	6.33214	0.370795	-0.851602
C	7.52898	0.857953	-0.553483
N	8.1109	0.187036	0.468687
H	7.43092	-1.50981	1.67158
H	5.23002	-1.26733	0.0233474
H	8.0271	1.70503	-1.05205
H	9.05357	0.380596	0.887232
