18
  This energy is -1.3431 and Call times are: 74165
C	0.578096	-0.975099	-0.0372524
C	-0.529386	-0.752873	-0.80176
C	-0.968655	0.567402	-0.479218
C	-0.0908266	1.03543	0.453917
O	0.860355	0.10652	0.735691
H	1.24487	-1.8489	0.0471994
H	-0.990709	-1.44886	-1.52071
H	-1.83827	1.0986	-0.898362
H	-0.035247	1.99866	0.987155
C	4.45632	-0.476709	1.07456
C	4.90043	0.773636	0.699667
N	4.67673	0.996807	-0.618158
C	4.09604	-0.110877	-1.05913
N	3.941	-1.02958	-0.076517
H	4.47005	-0.994904	2.04658
H	5.37827	1.51872	1.35646
H	3.76401	-0.302075	-2.0923
H	3.51029	-1.98164	-0.173119
