18
  This energy is -1.3877 and Call times are: 17156
C	0.78991	-0.122024	0.804707
C	-0.274968	0.718155	0.94791
C	-1.03302	0.597413	-0.25662
C	-0.36446	-0.305891	-1.02956
O	0.751203	-0.755557	-0.397022
H	1.63265	-0.355208	1.47603
H	-0.503709	1.35868	1.8148
H	-1.96637	1.12571	-0.509332
H	-0.57648	-0.707076	-2.03423
C	5.85389	-0.909558	-0.745434
C	5.87574	-0.968785	0.63194
N	5.93037	0.272246	1.17358
C	5.94236	1.09823	0.136164
N	5.89763	0.434196	-1.04309
H	5.81172	-1.70211	-1.50938
H	5.85307	-1.88475	1.24459
H	5.98324	2.19838	0.1834
H	5.89648	0.861561	-2.00154
