18
  This energy is -1.0579 and Call times are: 201102
C	0.900982	-0.687113	-0.0500892
C	-0.312017	-1.10569	0.412299
C	-1.17723	0.0271223	0.321373
C	-0.416573	1.03794	-0.188553
O	0.855304	0.619441	-0.421363
H	1.86197	-1.21517	-0.163721
H	-0.571476	-2.11128	0.780475
H	-2.2409	0.0744637	0.605033
H	-0.659443	2.08608	-0.428699
C	4.44332	0.67824	0.0992183
C	5.5095	0.618634	0.971485
N	6.43855	-0.272178	0.547413
C	5.95058	-0.763339	-0.583635
N	4.74956	-0.221964	-0.896791
H	3.51916	1.27756	0.116209
H	5.62503	1.20244	1.89921
H	6.43155	-1.52152	-1.22243
H	4.16336	-0.445402	-1.73804
