18
  This energy is -1.3151 and Call times are: 209584
C	0.241207	-1.08677	0.21714
C	1.04748	-0.064365	0.623318
C	0.417724	1.1344	0.168913
C	-0.717795	0.738719	-0.47483
O	-0.841497	-0.614542	-0.454994
H	0.326068	-2.17874	0.342263
H	1.99105	-0.146149	1.18643
H	0.77593	2.16686	0.30966
H	-1.50918	1.31471	-0.981968
C	4.52128	1.01701	-0.564663
C	4.64988	0.837699	0.796385
N	4.84698	-0.46807	1.10074
C	4.84066	-1.09643	-0.0670531
N	4.64773	-0.244601	-1.10182
H	4.35429	1.92289	-1.16884
H	4.60399	1.62712	1.56421
H	4.9728	-2.17943	-0.221631
H	4.60299	-0.497105	-2.11942
