18
  This energy is -1.4541 and Call times are: 43946
C	-0.840294	0.514118	0.562129
C	-0.478543	-0.777361	0.810305
C	0.599279	-1.0601	-0.0832694
C	0.801022	0.0835554	-0.798613
O	-0.0693405	1.05529	-0.417551
H	-1.61924	1.15384	1.0085
H	-0.925824	-1.46221	1.54856
H	1.15383	-2.00776	-0.175586
H	1.52175	0.329866	-1.59556
C	4.20973	-1.15781	-0.0914884
C	4.29436	-0.24892	-1.12488
N	4.52162	1.00263	-0.657463
C	4.57776	0.870675	0.660892
N	4.39565	-0.412958	1.05167
H	4.03616	-2.24565	-0.0887756
H	4.19551	-0.473805	-2.19936
H	4.74976	1.68132	1.38718
H	4.396	-0.772316	2.03764
