18
  This energy is -0.7045 and Call times are: 154418
C	-0.432161	0.597735	0.861598
C	-1.02596	-0.535295	0.388282
C	-0.197123	-0.993737	-0.680822
C	0.829993	-0.100385	-0.766443
O	0.702438	0.878152	0.168011
H	-0.713896	1.28532	1.67591
H	-1.95448	-1.00147	0.755191
H	-0.35525	-1.88603	-1.30764
H	1.7015	-0.0506729	-1.43969
C	5.72992	0.529192	1.01593
C	4.84665	0.0170007	0.0893019
N	5.50381	-0.522771	-0.965829
C	6.78987	-0.346111	-0.694809
N	6.97824	0.283689	0.489024
H	5.56404	1.03417	1.98082
H	3.74697	0.0272626	0.163181
H	7.63526	-0.658642	-1.32875
H	7.89966	0.536754	0.922846
