18
  This energy is -1.3413 and Call times are: 201871
C	0.159018	1.11707	0.115175
C	-0.058647	0.296377	1.18263
C	-0.210093	-1.01685	0.641689
C	-0.071605	-0.882723	-0.708572
O	0.154343	0.413782	-1.04774
H	0.329173	2.20439	0.0516629
H	-0.107645	0.586642	2.24444
H	-0.39986	-1.94722	1.2007
H	-0.112173	-1.62263	-1.52475
C	3.63901	-0.486079	-0.152037
C	4.1755	0.568061	-0.860633
N	5.42123	0.869235	-0.420215
C	5.65665	0.00522192	0.557885
N	4.61236	-0.833211	0.758057
H	2.66591	-0.996744	-0.22846
H	3.68604	1.1167	-1.68177
H	6.57711	-0.0574439	1.16043
H	4.55508	-1.60135	1.47075
