18
  This energy is -1.7757 and Call times are: 150365
C	-0.914237	0.663873	0.0992201
C	-0.514729	0.144969	-1.09724
C	0.655852	-0.624507	-0.818375
C	0.868334	-0.507893	0.523872
O	-0.0810499	0.275408	1.10017
H	-1.76264	1.31482	0.367071
H	-0.996061	0.289558	-2.0778
H	1.26257	-1.19514	-1.53974
H	1.64868	-0.927601	1.17973
C	4.42617	0.196392	1.1601
C	5.08679	-0.80099	0.474572
N	4.83138	-0.732121	-0.854538
C	4.01541	0.304044	-0.993024
N	3.74106	0.897309	0.192877
H	4.3961	0.448567	2.23204
H	5.74314	-1.56905	0.915179
H	3.58894	0.671787	-1.94019
H	3.12401	1.73216	0.346298
