18
  This energy is -1.2617 and Call times are: 122247
C	-0.65159	0.655255	-0.657626
C	-0.0155874	1.13467	0.449641
C	0.695053	0.0261324	1.00305
C	0.430579	-1.03283	0.185109
O	-0.39023	-0.66667	-0.834309
H	-1.3098	1.14659	-1.39288
H	-0.044019	2.16551	0.837771
H	1.32716	0.0266034	1.90557
H	0.761152	-2.08391	0.21987
C	5.17171	1.02403	0.0979953
C	5.03989	0.255413	-1.03911
N	4.3162	-0.863284	-0.791529
C	4.00026	-0.78896	0.494271
N	4.49293	0.330654	1.07507
H	5.68344	1.98335	0.275128
H	5.45401	0.488022	-2.03372
H	3.41004	-1.52706	1.06091
H	4.37946	0.616134	2.07851
