18
  This energy is -1.0183 and Call times are: 65488
C	-0.545215	0.613322	-0.782929
C	-1.01889	-0.583931	-0.332828
C	-0.0701976	-1.04212	0.63162
C	0.899463	-0.0844146	0.685741
O	0.625485	0.933874	-0.171602
H	-0.942642	1.32413	-1.52594
H	-1.9436	-1.09332	-0.648321
H	-0.113098	-1.9774	1.21257
H	1.82205	-0.0111354	1.28467
C	5.07372	-0.420045	1.06477
C	4.27535	-1.02448	0.11692
N	4.17403	-0.258932	-0.996716
C	4.90676	0.816336	-0.740709
N	5.47008	0.766682	0.489652
H	5.37771	-0.739757	2.07418
H	3.77063	-1.99924	0.216651
H	5.06474	1.67018	-1.4191
H	6.09057	1.49369	0.922923
