18
  This energy is -0.9513 and Call times are: 108774
C	0.181729	0.36824	1.05725
C	0.9939	0.708384	0.0155886
C	0.447369	0.0605147	-1.13406
C	-0.650532	-0.618341	-0.693443
O	-0.827749	-0.441594	0.642359
H	0.21446	0.633582	2.12672
H	1.88815	1.35104	0.0530291
H	0.833622	0.100985	-2.16521
H	-1.37824	-1.25445	-1.22359
C	4.89834	1.00427	-0.12061
C	4.68743	-0.174015	-0.804942
N	5.56561	-1.12958	-0.414812
C	6.31847	-0.546319	0.508036
N	5.9557	0.740742	0.721257
H	4.38786	1.97913	-0.171431
H	3.91734	-0.351764	-1.57319
H	7.1491	-1.01582	1.05926
H	6.39601	1.41032	1.39879
