18
  This energy is -1.1761 and Call times are: 193175
C	0.0952184	-0.056677	-1.12877
C	-1.11098	-0.107356	-0.494041
C	-0.822953	-0.00822965	0.901426
C	0.533835	0.0942734	0.99626
O	1.1107	0.0663832	-0.233969
H	0.361108	-0.0977715	-2.19782
H	-2.10395	-0.204771	-0.961609
H	-1.5482	-0.0135083	1.73094
H	1.20049	0.191103	1.86887
C	4.204	-0.687344	-0.331425
C	4.51746	0.560259	-0.82779
N	5.61601	1.06717	-0.21727
C	5.98268	0.137572	0.654529
N	5.16296	-0.939795	0.624015
H	3.39344	-1.38996	-0.582124
H	3.97063	1.10371	-1.6155
H	6.84364	0.194571	1.33989
H	5.24272	-1.80296	1.21549
