18
  This energy is -0.9176 and Call times are: 98182
C	-0.210352	1.08765	0.243252
C	-0.979833	0.0695053	0.724558
C	-0.407279	-1.13202	0.206257
C	0.661539	-0.742044	-0.54602
O	0.796646	0.610223	-0.534585
H	-0.274245	2.17973	0.379415
H	-1.86212	0.155913	1.37893
H	-0.75738	-2.16242	0.378872
H	1.3943	-1.32177	-1.13102
C	4.61986	-0.638132	-0.131137
C	4.71423	0.637024	0.384825
N	5.99882	1.06867	0.388863
C	6.69871	0.0651079	-0.12265
N	5.91269	-0.987175	-0.451979
H	3.7531	-1.29982	-0.287486
H	3.87843	1.25332	0.754247
H	7.78945	0.0479932	-0.278312
H	6.22803	-1.89581	-0.871747
