18
  This energy is -0.9662 and Call times are: 82660
C	0.93196	-0.426051	-0.48614
C	-0.189249	-0.119739	-1.19989
C	-1.1312	0.383484	-0.251414
C	-0.502455	0.340262	0.958207
O	0.758361	-0.151474	0.833512
H	1.90564	-0.839733	-0.796086
H	-0.338059	-0.236449	-2.2854
H	-2.15555	0.734517	-0.455321
H	-0.839411	0.626765	1.96797
C	6.16432	-0.919174	-0.314472
C	6.50397	0.414521	-0.398365
N	5.49872	1.20401	0.0518566
C	4.53909	0.363283	0.413679
N	4.89209	-0.9284	0.212336
H	6.7194	-1.83192	-0.583405
H	7.45636	0.821258	-0.775687
H	3.55797	0.64006	0.832046
H	4.30792	-1.77551	0.418297
