18
  This energy is -0.9065 and Call times are: 142170
C	0.707463	0.878638	0.117868
C	0.936283	-0.328056	0.711085
C	-0.158917	-1.16344	0.333219
C	-0.960317	-0.393497	-0.45755
O	-0.446456	0.856596	-0.599765
H	1.28197	1.81942	0.128967
H	1.7906	-0.602376	1.35061
H	-0.322581	-2.21425	0.621517
H	-1.90967	-0.615075	-0.972214
C	4.70953	-0.744155	0.195925
C	4.8973	0.492561	0.775941
N	6.03035	1.07938	0.319468
C	6.54353	0.210019	-0.540462
N	5.78397	-0.905623	-0.650056
H	3.91389	-1.4957	0.321135
H	4.23553	0.971931	1.51561
H	7.47333	0.34004	-1.11734
H	5.97681	-1.7355	-1.26274
