18
  This energy is -1.2535 and Call times are: 183351
C	0.12235	0.662829	-0.912189
C	-0.597617	-0.495243	-0.94206
C	-0.519657	-1.03823	0.376729
C	0.241067	-0.164036	1.09607
O	0.641672	0.880703	0.324681
H	0.337488	1.41031	-1.69337
H	-1.13017	-0.924101	-1.8061
H	-0.979747	-1.97179	0.738496
H	0.564679	-0.17207	2.14986
C	5.12278	0.927701	-0.0452761
C	3.91058	0.790998	-0.687948
N	3.34428	-0.409063	-0.412862
C	4.20191	-1.01454	0.397385
N	5.29041	-0.249474	0.649235
H	5.85362	1.75188	-0.0334027
H	3.43446	1.53678	-1.34519
H	4.08222	-2.01853	0.835467
H	6.10655	-0.504457	1.25764
