18
  This energy is -1.7388 and Call times are: 81492
C	-0.219981	1.10446	0.134827
C	0.607535	0.416852	0.973151
C	0.631741	-0.925135	0.484683
C	-0.183119	-0.93913	-0.609017
O	-0.71174	0.291916	-0.837263
H	-0.535611	2.16063	0.12317
H	1.1468	0.814744	1.84777
H	1.19351	-1.77461	0.905278
H	-0.46507	-1.7502	-1.30033
C	4.16735	-0.638634	0.988015
C	4.02583	0.728761	0.881505
N	4.11685	1.13032	-0.409609
C	4.3141	0.0162813	-1.10144
N	4.35235	-1.07746	-0.304035
H	4.15009	-1.30816	1.86264
H	3.85966	1.43277	1.71314
H	4.43711	-0.0555154	-2.19412
H	4.49563	-2.07055	-0.611463
