18
  This energy is -0.7007 and Call times are: 122951
C	0.903713	0.558545	0.397155
C	-0.176415	0.267943	1.1777
C	-1.09232	-0.430835	0.333334
C	-0.491031	-0.50556	-0.888649
O	0.728658	0.093552	-0.867816
H	1.8468	1.08396	0.620268
H	-0.314358	0.520337	2.24135
H	-2.08159	-0.827949	0.61216
H	-0.822332	-0.952427	-1.84038
C	5.87017	-0.776128	0.676481
C	4.60612	-0.914575	0.143412
N	4.26203	0.173712	-0.587166
C	5.30863	0.98422	-0.50763
N	6.30438	0.456746	0.24327
H	6.47139	-1.44536	1.31225
H	3.93624	-1.78022	0.272869
H	5.39864	1.97565	-0.980057
H	7.23069	0.9021	0.455094
