18
  This energy is -1.1827 and Call times are: 90304
C	0.81515	-0.779769	-0.117865
C	0.602654	0.200262	-1.0424
C	-0.491646	0.973637	-0.547909
C	-0.851258	0.397933	0.635145
O	-0.0637542	-0.674193	0.913344
H	1.54969	-1.60083	-0.0784569
H	1.16054	0.362316	-1.97867
H	-0.950905	1.85454	-1.02456
H	-1.63933	0.652942	1.36258
C	4.79235	1.07687	0.462439
C	4.20524	0.610773	-0.694798
N	4.54555	-0.679749	-0.929854
C	5.34076	-1.01299	0.077729
N	5.52052	0.0120108	0.944133
H	4.74509	2.05824	0.960654
H	3.54219	1.18255	-1.36434
H	5.81856	-1.99421	0.229841
H	6.10351	-0.00182837	1.81659
