18
  This energy is -0.8153 and Call times are: 49136
C	-0.873805	-0.532628	-0.489054
C	0.123682	-1.20447	0.154389
C	1.02578	-0.204075	0.629299
C	0.499918	0.990787	0.234143
O	-0.660159	0.808957	-0.450087
H	-1.77853	-0.889004	-1.0084
H	0.215057	-2.29512	0.281811
H	1.95565	-0.364858	1.19815
H	0.850373	2.02637	0.37559
C	6.71235	0.382862	-0.0345851
C	5.91253	0.263795	1.08223
N	4.68565	-0.21058	0.756274
C	4.7242	-0.385138	-0.557753
N	5.92474	-0.0414934	-1.08139
H	7.75159	0.728028	-0.154505
H	6.19876	0.511677	2.11735
H	3.90141	-0.761945	-1.18646
H	6.20263	-0.0892254	-2.0922
