18
  This energy is -0.8896 and Call times are: 189865
C	-0.755135	0.82049	0.207288
C	-0.910328	-0.0751137	-0.80966
C	0.227327	-0.936611	-0.74898
C	0.977295	-0.491405	0.299692
O	0.392261	0.581053	0.895158
H	-1.38193	1.66376	0.540863
H	-1.74246	-0.124171	-1.53025
H	0.452641	-1.78642	-1.41317
H	1.93343	-0.846821	0.717696
C	4.54338	-0.380822	-0.81706
C	4.90331	-1.03075	0.344486
N	5.79923	-0.302699	1.05426
C	5.99436	0.794717	0.335774
N	5.25973	0.795097	-0.80173
H	3.85125	-0.662502	-1.62648
H	4.53259	-2.01195	0.683106
H	6.66434	1.62991	0.596173
H	5.23968	1.54777	-1.53272
