18
  This energy is -0.9876 and Call times are: 138382
C	-0.577459	0.210458	-0.953231
C	-0.40092	1.15276	0.0169595
C	0.365136	0.51922	1.04258
C	0.589098	-0.754306	0.608593
O	0.0205518	-0.960253	-0.608515
H	-1.10178	0.248099	-1.92221
H	-0.772839	2.18994	0.010982
H	0.705261	0.967524	1.98991
H	1.13067	-1.59818	1.06666
C	6.22229	0.152152	-0.319999
C	5.50321	-1.02371	-0.357659
N	4.23606	-0.835926	0.0845679
C	4.16928	0.451534	0.395391
N	5.34142	1.0907	0.169263
H	7.26378	0.379867	-0.597485
H	5.87602	-2.00421	-0.695998
H	3.28648	0.978004	0.792524
H	5.54114	2.10751	0.335057
