18
  This energy is -2.0577 and Call times are: 75511
C	-0.161724	-0.209094	1.10296
C	0.470141	-1.0918	0.277163
C	0.479664	-0.481196	-1.01403
C	-0.14722	0.720745	-0.86328
O	-0.545491	0.903405	0.423199
H	-0.397348	-0.254644	2.17891
H	0.887643	-2.07435	0.549904
H	0.906018	-0.896187	-1.94145
H	-0.369593	1.5248	-1.58391
C	4.05283	-0.732524	-0.919625
C	4.39842	0.602192	-0.903942
N	4.21225	1.14072	0.325629
C	3.75292	0.14388	1.06991
N	3.6391	-1.00658	0.364865
H	4.07141	-1.48173	-1.72702
H	4.77875	1.18625	-1.7578
H	3.48401	0.201565	2.13695
H	3.30026	-1.93117	0.727607
