18
  This energy is -0.7488 and Call times are: 211030
C	-0.623357	-0.58994	0.741483
C	0.344467	-1.17074	-0.0242564
C	0.897811	-0.120195	-0.818154
C	0.21928	1.00985	-0.467471
O	-0.713465	0.741412	0.483813
H	-1.30783	-1.00956	1.4969
H	0.639155	-2.23245	-0.029517
H	1.70683	-0.205426	-1.56134
H	0.304728	2.05196	-0.816681
C	4.87582	0.449453	0.57356
C	4.95274	0.157745	-0.771852
N	6.16801	-0.348477	-1.09337
C	6.84244	-0.370731	0.0482446
N	6.10666	0.100347	1.0828
H	4.05952	0.866843	1.18428
H	4.15314	0.303478	-1.51633
H	7.87813	-0.722039	0.18304
H	6.41507	0.183755	2.0824
