18
  This energy is -0.7236 and Call times are: 158251
C	0.379087	0.315267	-1.02142
C	-0.804995	-0.340221	-0.852128
C	-0.931878	-0.561644	0.553216
C	0.185867	-0.0219174	1.11865
O	0.99752	0.517959	0.171671
H	0.886121	0.686752	-1.92705
H	-1.51759	-0.637948	-1.63804
H	-1.76241	-1.06518	1.07356
H	0.516356	0.0414787	2.16841
C	5.5543	1.14231	0.242895
C	4.60926	0.277771	-0.267619
N	5.12001	-0.967757	-0.423533
C	6.37712	-0.87626	-0.0113112
N	6.6874	0.375854	0.400423
H	5.50241	2.213	0.496773
H	3.56805	0.530416	-0.526244
H	7.11392	-1.69534	0.0102707
H	7.6145	0.700863	0.76936
