18
  This energy is -0.7713 and Call times are: 169225
C	-0.83478	0.390284	0.661228
C	0.474636	0.707021	0.874488
C	1.21096	0.0357755	-0.148923
C	0.286504	-0.631894	-0.897233
O	-0.968073	-0.426602	-0.416707
H	-1.75344	0.678181	1.19828
H	0.88122	1.34895	1.67243
H	2.30196	0.0537862	-0.302233
H	0.392367	-1.27797	-1.78415
C	5.33362	-0.395438	-0.691453
C	6.63794	-0.84156	-0.662165
N	7.36634	-0.161841	0.256498
C	6.51711	0.702671	0.795074
N	5.27859	0.601191	0.257172
H	4.46951	-0.706282	-1.29992
H	7.06648	-1.64171	-1.28744
H	6.74969	1.43286	1.58689
H	4.43678	1.17281	0.513854
