18
  This energy is -1.0641 and Call times are: 176199
C	-0.50976	0.558739	-0.845196
C	0.772436	0.823902	-0.46305
C	1.0522	-0.0707895	0.614623
C	-0.0837394	-0.803705	0.795894
O	-1.04792	-0.432528	-0.0870511
H	-1.14431	0.999601	-1.63148
H	1.45297	1.57426	-0.896562
H	1.99276	-0.15204	1.1828
H	-0.329031	-1.60772	1.50909
C	5.44474	-1.06948	-0.349938
C	4.91324	-0.731533	0.876619
N	4.62757	0.591796	0.937504
C	4.98051	1.07297	-0.246779
N	5.4789	0.11066	-1.05866
H	5.78958	-2.03409	-0.755099
H	4.73077	-1.41885	1.71873
H	4.89546	2.12233	-0.572112
H	5.82533	0.239085	-2.04088
