18
  This energy is -1.5711 and Call times are: 137618
C	-0.357082	0.773084	-0.749156
C	-0.80859	0.739728	0.537468
C	-0.137523	-0.357299	1.15901
C	0.664825	-0.897477	0.19734
O	0.543372	-0.219637	-0.974323
H	-0.595835	1.44408	-1.59059
H	-1.54076	1.41945	1.00223
H	-0.245938	-0.697253	2.2015
H	1.3598	-1.75288	0.220726
C	4.91132	-0.986929	0.612751
C	6.13257	-0.437415	0.284527
N	5.9787	0.704524	-0.428783
C	4.66698	0.862836	-0.542644
N	3.97987	-0.131038	0.0686511
H	4.64794	-1.89615	1.17621
H	7.12195	-0.844457	0.549628
H	4.15608	1.6888	-1.06321
H	2.93639	-0.230641	0.118606
