18
  This energy is -0.7822 and Call times are: 144659
C	0.604312	-0.841234	-0.462096
C	0.479555	0.380229	-1.0561
C	-0.343242	1.15677	-0.184258
C	-0.648651	0.341292	0.865547
O	-0.0782869	-0.88273	0.712361
H	1.14387	-1.75205	-0.769585
H	0.922501	0.702111	-2.01228
H	-0.665081	2.20044	-0.330074
H	-1.25394	0.510961	1.77114
C	6.27017	-0.0530735	0.888318
C	6.5623	-0.0023021	-0.458243
N	5.43077	0.0520316	-1.20201
C	4.44043	0.0350318	-0.320211
N	4.89494	-0.0278659	0.953781
H	6.92186	-0.103671	1.77504
H	7.56927	-0.00390195	-0.906434
H	3.36388	0.0667342	-0.55316
H	4.31098	-0.0526979	1.82535
