18
  This energy is -1.0687 and Call times are: 56629
C	-0.357375	1.03302	0.302582
C	0.728756	0.439071	0.875225
C	0.858979	-0.833424	0.239682
C	-0.159069	-0.904747	-0.665229
O	-0.911867	0.226485	-0.640313
H	-0.830775	2.01337	0.475926
H	1.37355	0.855276	1.66586
H	1.62481	-1.59999	0.439588
H	-0.451277	-1.69494	-1.37618
C	4.64115	-0.46314	0.858201
C	4.47066	-0.633466	-0.499395
N	5.41216	0.0451949	-1.19904
C	6.16387	0.634304	-0.278985
N	5.73969	0.358606	0.97706
H	4.07728	-0.855457	1.71941
H	3.68518	-1.23389	-0.986591
H	7.03723	1.27848	-0.470069
H	6.16636	0.704863	1.87111
