18
  This energy is -1.6104 and Call times are: 52580
C	-0.267731	-0.28567	-1.06448
C	-1.1986	0.155482	-0.170479
C	-0.486944	0.409904	1.04151
C	0.81599	0.101766	0.781155
O	0.968043	-0.324712	-0.500253
H	-0.356447	-0.598987	-2.11767
H	-2.27811	0.2884	-0.346811
H	-0.904968	0.779305	1.99172
H	1.71748	0.142453	1.41433
C	3.98722	0.363905	-0.994846
C	4.28749	-0.935857	-0.646136
N	4.87589	-0.991086	0.57339
C	4.9404	0.26962	0.979696
N	4.41744	1.12471	0.0692412
H	3.51363	0.787182	-1.89489
H	4.09011	-1.83476	-1.25265
H	5.36071	0.622468	1.93524
H	4.35214	2.16838	0.157181
