18
  This energy is -0.8093 and Call times are: 34407
C	-1.08537	0.26351	0.197345
C	-0.697835	-0.476874	-0.880628
C	0.722397	-0.594182	-0.784206
C	1.07738	0.084873	0.344177
O	-0.0141066	0.615128	0.956147
H	-2.07934	0.603353	0.531656
H	-1.34697	-0.898147	-1.665
H	1.39336	-1.12449	-1.47896
H	2.05951	0.261495	0.812651
C	6.93226	-0.320995	-0.00584068
C	5.83626	-1.15119	-0.109216
N	4.6814	-0.443362	-0.0669041
C	5.05952	0.821141	0.0622295
N	6.4071	0.947217	0.103835
H	8.01273	-0.535768	-0.00266621
H	5.8581	-2.24822	-0.213573
H	4.3909	1.69432	0.131008
H	6.94867	1.8408	0.201107
