18
  This energy is -1.6611 and Call times are: 135911
C	-0.547802	0.529196	0.840396
C	-0.768932	-0.781851	0.536041
C	0.0945731	-1.07933	-0.562131
C	0.767151	0.076192	-0.83191
O	0.387298	1.06891	0.014984
H	-0.985956	1.18488	1.61069
H	-1.46981	-1.47039	1.03482
H	0.196315	-2.04437	-1.08409
H	1.53048	0.317968	-1.58962
C	3.82801	-1.14487	-0.0198155
C	4.3484	-0.399903	-1.05681
N	4.54009	0.888932	-0.684429
C	4.14013	0.94332	0.578782
N	3.70192	-0.257485	1.02557
H	3.54784	-2.20821	0.0460138
H	4.58898	-0.769292	-2.06702
H	4.14669	1.83704	1.22334
H	3.33585	-0.471702	1.98545
