18
  This energy is -0.9211 and Call times are: 197762
C	-0.607385	-0.172295	0.942231
C	0.75576	-0.125962	0.950184
C	1.14704	0.104836	-0.403976
C	-0.0115399	0.179167	-1.1199
O	-1.09282	0.0121334	-0.313698
H	-1.33837	-0.327768	1.75263
H	1.41919	-0.24261	1.82217
H	2.17416	0.202713	-0.790677
H	-0.198093	0.344826	-2.19368
C	5.03342	0.00346563	-1.08046
C	5.70569	-1.03571	-0.472741
N	6.10802	-0.693857	0.775371
C	5.68694	0.552649	0.941321
N	5.03337	1.01808	-0.149465
H	4.57048	0.0898777	-2.07633
H	5.90764	-2.026	-0.912501
H	5.83026	1.17126	1.84188
H	4.60771	1.97041	-0.264129
