18
  This energy is -0.9851 and Call times are: 32725
C	0.11615	-0.534121	-0.993793
C	-1.08063	-0.450805	-0.344829
C	-0.825935	0.28591	0.852042
C	0.503999	0.587756	0.828812
O	1.09498	0.0947026	-0.291302
H	0.398634	-1.0069	-1.94875
H	-2.04594	-0.866442	-0.675753
H	-1.55451	0.555044	1.6336
H	1.14086	1.14005	1.53919
C	4.35057	-0.676163	-0.162705
C	5.63928	-1.10331	0.0779228
N	6.48439	-0.0529845	0.216155
C	5.72286	1.02167	0.0618693
N	4.42824	0.698652	-0.1688
H	3.41491	-1.23461	-0.324637
H	5.97443	-2.15055	0.154269
H	6.06201	2.06908	0.108137
H	3.63483	1.36798	-0.322921
