18
  This energy is -0.4963 and Call times are: 58360
C	1.12219	0.164131	0.0125294
C	0.236189	1.14977	0.334849
C	-1.06139	0.567419	0.203419
C	-0.853774	-0.722684	-0.187612
O	0.473928	-0.986217	-0.309138
H	2.22387	0.15526	-0.0258116
H	0.472658	2.18324	0.635042
H	-2.03101	1.05959	0.38145
H	-1.55754	-1.54184	-0.408825
C	6.09114	-0.261025	1.12842
C	5.3601	0.590064	0.326939
N	5.8843	0.656759	-0.920969
C	6.93654	-0.149886	-0.893757
N	7.10357	-0.727058	0.319735
H	5.9667	-0.558119	2.18189
H	4.46381	1.15719	0.626751
H	7.61905	-0.354317	-1.73436
H	7.86017	-1.40114	0.592568
