18
  This energy is -0.8281 and Call times are: 200558
C	1.03256	-0.462019	-0.0822417
C	0.497124	0.310396	-1.07071
C	-0.795307	0.701132	-0.604805
C	-0.935568	0.132998	0.627236
O	0.171252	-0.58094	0.962278
H	2.0036	-0.977735	-0.00240291
H	0.965317	0.57815	-2.03154
H	-1.52842	1.33207	-1.13259
H	-1.76282	0.160953	1.35533
C	5.61628	1.08763	0.441742
C	4.72132	0.46667	-0.403596
N	5.13215	-0.786664	-0.714862
C	6.27762	-0.94264	-0.0650955
N	6.61265	0.159496	0.646693
H	5.6147	2.09086	0.896791
H	3.78654	0.900543	-0.794482
H	6.91187	-1.84367	-0.075645
H	7.46837	0.283377	1.24138
