18
  This energy is -1.4354 and Call times are: 175334
C	-0.245565	1.10683	0.0319883
C	-0.531633	0.264988	1.06632
C	-0.0787416	-1.02611	0.656346
C	0.444102	-0.859261	-0.592321
O	0.350551	0.437126	-0.98936
H	-0.413481	2.18855	-0.0981289
H	-1.01326	0.52691	2.02211
H	-0.139408	-1.96425	1.23107
H	0.906342	-1.57397	-1.29287
C	5.49563	-0.941808	0.0441197
C	5.20187	0.332423	0.481371
N	6.2456	1.17213	0.276333
C	7.18329	0.421679	-0.28598
N	6.77944	-0.860702	-0.447222
H	4.90175	-1.86962	0.0477137
H	4.25553	0.660922	0.941116
H	8.18379	0.760579	-0.599621
H	7.33791	-1.64395	-0.866622
