18
  This energy is -1.0421 and Call times are: 24756
C	0.0591121	-0.397887	-1.06047
C	0.865627	-0.858366	-0.0615345
C	0.496947	-0.125617	1.10777
C	-0.502317	0.717948	0.720158
O	-0.782553	0.565121	-0.600873
H	-0.012914	-0.670423	-2.1262
H	1.64226	-1.63602	-0.140199
H	0.930896	-0.222186	2.11596
H	-1.08733	1.46496	1.2814
C	4.88519	-0.434429	1.0475
C	4.16114	0.436868	0.261538
N	4.82527	0.729659	-0.882891
C	5.95702	0.0426138	-0.807188
N	6.04052	-0.675185	0.337968
H	4.66733	-0.88515	2.02879
H	3.17144	0.859483	0.499737
H	6.75936	0.0290489	-1.56237
H	6.83415	-1.2967	0.629743
