18
  This energy is -1.3165 and Call times are: 195410
C	-0.780404	0.820904	-0.0590416
C	-0.807468	-0.272609	-0.873824
C	0.321326	-1.06503	-0.502334
C	0.938532	-0.385808	0.506665
O	0.279201	0.768235	0.790355
H	-1.4485	1.6947	0.0143055
H	-1.54803	-0.498549	-1.6578
H	0.629971	-2.02753	-0.941013
H	1.84104	-0.614592	1.0969
C	4.36653	-0.232287	-0.797786
C	5.6839	-0.637579	-0.835352
N	6.36375	-0.190541	0.248378
C	5.47154	0.489494	0.955571
N	4.25218	0.493672	0.366729
H	3.53022	-0.40339	-1.4941
H	6.15601	-1.24455	-1.62501
H	5.65777	1.00424	1.91191
H	3.3849	0.960906	0.728377
