18
  This energy is -0.721 and Call times are: 108261
C	0.470195	-0.231041	1.00595
C	1.16549	-0.323554	-0.163828
C	0.246378	0.0403736	-1.1948
C	-0.929433	0.323151	-0.564028
O	-0.810862	0.162636	0.780289
H	0.769219	-0.415951	2.05077
H	2.21983	-0.618485	-0.288226
H	0.446413	0.0837102	-2.27749
H	-1.90926	0.64461	-0.953711
C	6.15943	1.14783	0.0163796
C	5.06883	0.554434	-0.583302
N	5.08414	-0.788922	-0.405337
C	6.18007	-1.02799	0.302059
N	6.8627	0.107561	0.581564
H	6.47434	2.20162	0.0788505
H	4.2712	1.07154	-1.14119
H	6.52988	-2.016	0.642212
H	7.75725	0.181457	1.12523
