18
  This energy is -1.0154 and Call times are: 147773
C	0.429025	-0.636778	-0.834777
C	-0.784212	-0.896127	-0.26806
C	-0.972454	0.108442	0.7297
C	0.142367	0.892988	0.684619
O	1.00889	0.452383	-0.265129
H	0.983519	-1.14575	-1.64022
H	-1.47708	-1.71291	-0.526692
H	-1.8403	0.2254	1.39848
H	0.434941	1.78178	1.26746
C	5.57133	0.937141	-0.237022
C	5.7742	-0.356563	-0.668665
N	4.80515	-1.18351	-0.206483
C	4.00415	-0.405775	0.509164
N	4.42338	0.881736	0.521483
H	6.14353	1.86242	-0.410162
H	6.60244	-0.70809	-1.3053
H	3.09678	-0.727544	1.04524
H	3.96187	1.68477	1.01484
