18
  This energy is -0.7634 and Call times are: 195602
C	0.62969	-0.943128	0.0199966
C	0.859628	0.106601	0.859979
C	-0.124423	1.08973	0.535618
C	-0.868831	0.553995	-0.473943
O	-0.422243	-0.687079	-0.801518
H	1.13704	-1.91553	-0.0908239
H	1.64356	0.181138	1.63069
H	-0.255158	2.07809	1.00483
H	-1.73069	0.949524	-1.03608
C	8.29734	0.423814	-0.0362308
C	7.9233	-0.889004	0.15806
N	6.5746	-1.02032	0.141924
C	6.11369	0.206368	-0.0616045
N	7.11323	1.11274	-0.175635
H	9.28927	0.900653	-0.0835781
H	8.60244	-1.74379	0.309594
H	5.05334	0.496915	-0.135614
H	7.0065	2.14383	-0.339096
