18
  This energy is -1.1807 and Call times are: 153777
C	0.311782	0.236139	1.06463
C	0.784398	-0.85043	0.389071
C	0.17087	-0.806621	-0.90003
C	-0.622503	0.302851	-0.898427
O	-0.548629	0.951677	0.293453
H	0.508298	0.605177	2.08465
H	1.49389	-1.6069	0.761196
H	0.31009	-1.52237	-1.72612
H	-1.27965	0.732846	-1.67206
C	6.15501	-0.173655	0.144516
C	5.35264	-0.718047	-0.835782
N	4.06933	-0.303355	-0.702955
C	4.07554	0.495265	0.355719
N	5.30961	0.605898	0.901999
H	7.23186	-0.282201	0.349848
H	5.67673	-1.40262	-1.63652
H	3.20434	1.02473	0.773948
H	5.57235	1.17675	1.74244
