18
  This energy is -0.5099 and Call times are: 119122
C	0.100714	0.814306	0.783048
C	1.04399	0.606299	-0.179938
C	0.567501	-0.48837	-0.964016
C	-0.624885	-0.852665	-0.410953
O	-0.92551	-0.0677293	0.656995
H	0.0436762	1.54744	1.60434
H	1.9813	1.16743	-0.323716
H	1.06192	-0.944726	-1.83659
H	-1.34491	-1.64266	-0.680627
C	5.43662	0.360059	-0.353086
C	6.6515	0.694095	-0.913105
N	7.67423	0.0992545	-0.252276
C	7.09602	-0.60114	0.714029
N	5.74779	-0.476596	0.695421
H	4.407	0.648884	-0.617666
H	6.8084	1.35365	-1.78214
H	7.61279	-1.22275	1.46288
H	5.06887	-0.930831	1.3542
