18
  This energy is -0.9817 and Call times are: 61076
C	1.11535	0.0838136	-0.188066
C	0.561054	0.321043	1.03539
C	-0.84348	0.11733	0.874451
C	-1.02349	-0.226403	-0.43315
O	0.162203	-0.251766	-1.09686
H	2.16058	0.119845	-0.536563
H	1.08835	0.610456	1.95859
H	-1.62169	0.217392	1.64806
H	-1.93253	-0.473819	-1.00558
C	4.74791	-0.549992	0.810789
C	5.68943	0.432436	1.0333
N	6.25107	0.84334	-0.129557
C	5.66021	0.118581	-1.0699
N	4.74592	-0.73643	-0.553552
H	4.10075	-1.11093	1.50366
H	5.97355	0.852123	2.01207
H	5.85935	0.173697	-2.15227
H	4.14921	-1.41255	-1.09027
