18
  This energy is -0.8692 and Call times are: 33240
C	0.41829	1.04035	-0.170602
C	0.81683	0.254536	0.870567
C	0.0766231	-0.960935	0.748746
C	-0.708904	-0.810579	-0.356113
O	-0.513128	0.405699	-0.930004
H	0.71784	2.05627	-0.476268
H	1.55773	0.505621	1.64653
H	0.12951	-1.83962	1.41147
H	-1.43928	-1.48587	-0.831282
C	5.30567	0.822888	0.834735
C	4.49893	-0.294671	0.871867
N	4.62604	-1.02694	-0.26133
C	5.50829	-0.366173	-0.998663
N	5.94779	0.756165	-0.381581
H	5.46303	1.63388	1.56347
H	3.82743	-0.585728	1.69602
H	5.86799	-0.659751	-1.99799
H	6.64487	1.44439	-0.757983
