18
  This energy is -1.2847 and Call times are: 146251
C	-0.155346	-1.06389	0.361121
C	-0.303204	0.0151159	1.18225
C	-0.0283569	1.16114	0.375283
C	0.263193	0.681287	-0.867743
O	0.190422	-0.675547	-0.894525
H	-0.266618	-2.14478	0.547009
H	-0.578226	0.00502933	2.24919
H	-0.0479102	2.21628	0.692146
H	0.534344	1.19498	-1.80468
C	3.6353	-0.673447	-0.0302121
C	4.20066	-0.0871122	1.08232
N	5.30747	0.621631	0.751922
C	5.42829	0.475537	-0.560588
N	4.44423	-0.296783	-1.07899
H	2.74429	-1.31083	-0.145955
H	3.82976	-0.162775	2.11748
H	6.21874	0.912497	-1.19185
H	4.32097	-0.558738	-2.08768
