18
  This energy is -0.5441 and Call times are: 72508
C	0.0788809	0.945167	-0.621964
C	1.0115	0.60675	0.314022
C	0.570077	-0.629695	0.876576
C	-0.593322	-0.937703	0.234697
O	-0.908331	0.0131776	-0.683784
H	0.0046604	1.81089	-1.30039
H	1.91923	1.17119	0.581474
H	1.06751	-1.21452	1.66692
H	-1.28174	-1.79237	0.339012
C	5.23013	0.0713388	-0.106824
C	6.12321	-0.365367	-1.06225
N	7.39623	-0.315539	-0.600237
C	7.29328	0.150306	0.637104
N	6.00754	0.398947	0.981523
H	4.13299	0.168911	-0.12381
H	5.87182	-0.715507	-2.07667
H	8.12752	0.328473	1.33463
H	5.66763	0.770496	1.90222
