18
  This energy is -2.2003 and Call times are: 41829
C	-0.685957	-0.888718	0.161384
C	-0.50101	-0.322071	-1.06543
C	0.417696	0.753075	-0.865041
C	0.713056	0.748525	0.466542
O	0.0478492	-0.247534	1.10871
H	-1.30501	-1.74061	0.48741
H	-0.964987	-0.630278	-2.01613
H	0.80765	1.44421	-1.62948
H	1.37229	1.39259	1.07139
C	4.92749	0.448752	-1.08049
C	5.92699	-0.0294159	-0.25982
N	5.42253	-0.472523	0.917332
C	4.11505	-0.270018	0.827276
N	3.76669	0.28357	-0.358379
H	4.95906	0.880487	-2.09348
H	7.00308	-0.0626227	-0.496001
H	3.36692	-0.508779	1.60028
H	2.79707	0.538397	-0.66848
