18
  This energy is -1.4646 and Call times are: 20886
C	0.113674	0.643245	-0.927208
C	-0.185247	-0.685949	-0.992495
C	-0.243057	-1.14061	0.360302
C	0.0256404	-0.0491187	1.13284
O	0.245983	1.04903	0.363081
H	0.257157	1.39994	-1.71593
H	-0.348643	-1.28605	-1.90204
H	-0.460187	-2.16332	0.708171
H	0.0886863	0.0749576	2.2264
C	4.83651	-1.08206	0.153941
C	5.2638	0.0773718	0.765731
N	4.53521	1.14367	0.355035
C	3.65926	0.647633	-0.508257
N	3.8003	-0.690082	-0.663869
H	5.18487	-2.1236	0.2398
H	6.08475	0.163601	1.49611
H	2.89228	1.21949	-1.05503
H	3.22913	-1.31045	-1.2885
