18
  This energy is -1.7378 and Call times are: 112330
C	-0.179129	1.10712	-0.16913
C	-0.687705	0.150039	-0.997215
C	-0.251771	-1.1009	-0.463153
C	0.484713	-0.797829	0.644145
O	0.539559	0.5461	0.838718
H	-0.2559	2.20665	-0.188582
H	-1.30764	0.30901	-1.89415
H	-0.466513	-2.10467	-0.863685
H	1.0145	-1.43886	1.36779
C	3.60251	-1.12426	-0.180644
C	4.11014	-0.578749	0.979475
N	4.34032	0.748923	0.835198
C	3.97687	1.02601	-0.409692
N	3.52498	-0.0703261	-1.06348
H	3.30101	-2.15354	-0.432072
H	4.31443	-1.11937	1.91801
H	4.02092	2.01512	-0.893379
H	3.18108	-0.109937	-2.05415
