18
  This energy is -0.8553 and Call times are: 112141
C	0.685566	0.610672	-0.665943
C	0.39534	0.977185	0.615389
C	-0.485746	-0.0276655	1.11945
C	-0.656159	-0.919523	0.101649
O	0.0519222	-0.545328	-0.996353
H	1.32034	1.08082	-1.43489
H	0.76466	1.86599	1.15179
H	-0.935389	-0.0728632	2.12438
H	-1.24733	-1.84753	0.0340548
C	5.73715	-0.189125	0.897741
C	5.29916	-1.11734	-0.0229741
N	4.45542	-0.553896	-0.921385
C	4.3703	0.719031	-0.559396
N	5.12491	0.988861	0.532094
H	6.41846	-0.280437	1.75856
H	5.57684	-2.18351	-0.055106
H	3.76989	1.49659	-1.05854
H	5.22459	1.91834	1.00896
