18
  This energy is -0.9394 and Call times are: 149885
C	-0.128056	-0.333735	1.07639
C	1.02028	0.246162	0.623157
C	0.799713	0.52068	-0.761078
C	-0.463934	0.0843037	-1.03153
O	-1.04526	-0.440412	0.0792107
H	-0.413409	-0.709604	2.07266
H	1.93127	0.459232	1.20521
H	1.5057	0.988912	-1.46566
H	-1.05618	0.0903997	-1.96129
C	5.83906	0.0915901	-1.04217
C	5.13509	1.07842	-0.385097
N	4.64602	0.62639	0.79515
C	5.04506	-0.636065	0.869987
N	5.76776	-1.00603	-0.21372
H	6.36808	0.0927024	-2.00844
H	4.97132	2.10847	-0.741493
H	4.83588	-1.33457	1.69616
H	6.19279	-1.9493	-0.389385
