18
  This energy is -1.2626 and Call times are: 74870
C	-0.376421	0.841832	-0.660323
C	-1.16155	-0.215943	-0.306688
C	-0.345309	-1.05096	0.515874
C	0.866558	-0.429744	0.592281
O	0.865419	0.727609	-0.120139
H	-0.580976	1.72821	-1.28301
H	-2.21028	-0.390664	-0.596045
H	-0.635351	-2.00183	0.991081
H	1.79772	-0.705217	1.1141
C	4.80468	-0.0462865	1.10755
C	5.99811	-0.548171	0.633249
N	6.13098	-0.318672	-0.695731
C	5.02418	0.323146	-1.04456
N	4.1926	0.511529	0.00737286
H	4.36239	-0.0465943	2.11647
H	6.76568	-1.07176	1.22616
H	4.77182	0.678052	-2.05678
H	3.25939	0.991138	-0.0115191
