18
  This energy is -0.6235 and Call times are: 195218
C	-0.379298	-0.557371	0.91207
C	-1.20765	-0.151319	-0.0925834
C	-0.372068	0.505136	-1.04704
C	0.893134	0.442284	-0.541384
O	0.907263	-0.203205	0.654507
H	-0.579743	-1.09937	1.85085
H	-2.29774	-0.299228	-0.155254
H	-0.685487	0.967397	-1.99687
H	1.85532	0.813675	-0.930635
C	6.24705	-0.927969	0.324496
C	4.96651	-0.949986	-0.186278
N	4.52469	0.303359	-0.451672
C	5.52732	1.09989	-0.106853
N	6.58877	0.405302	0.366937
H	6.91698	-1.73965	0.649925
H	4.3535	-1.84777	-0.368055
H	5.53723	2.19929	-0.180632
H	7.49868	0.806066	0.702646
