18
  This energy is -1.2989 and Call times are: 8276
C	0.478142	-0.761523	-0.691278
C	1.02919	-0.415936	0.507591
C	0.14946	0.554601	1.07702
C	-0.861522	0.716419	0.17585
O	-0.676923	-0.0796379	-0.910072
H	0.805999	-1.47016	-1.46948
H	1.96163	-0.805391	0.946878
H	0.264197	1.06725	2.04558
H	-1.75773	1.35819	0.18995
C	4.30895	0.951773	-0.0409148
C	4.25596	-0.145739	-0.873864
N	5.20151	-1.05775	-0.541187
C	5.83868	-0.528037	0.494208
N	5.33773	0.683205	0.83411
H	3.70744	1.87414	-0.00995209
H	3.55239	-0.295859	-1.70891
H	6.67933	-0.98449	1.0412
H	5.66977	1.30017	1.61537
