18
  This energy is -1.8774 and Call times are: 38318
C	0.130262	0.977378	0.560504
C	-0.413462	0.918799	-0.689018
C	-0.408889	-0.46235	-1.05306
C	0.137225	-1.12585	0.0061421
O	0.472292	-0.262148	1.00051
H	0.32535	1.82819	1.23378
H	-0.780897	1.76345	-1.29371
H	-0.772073	-0.901467	-1.99612
H	0.338676	-2.19676	0.172896
C	4.18376	0.793057	-0.76348
C	5.45807	0.267637	-0.728404
N	5.59205	-0.622021	0.285041
C	4.40538	-0.648419	0.876429
N	3.52191	0.187563	0.281275
H	3.71666	1.5304	-1.43555
H	6.28319	0.514547	-1.41619
H	4.12904	-1.26188	1.74908
H	2.52306	0.34456	0.562183
