18
  This energy is -1.1534 and Call times are: 49104
C	0.688277	-0.0941954	-0.896551
C	0.575377	-1.07559	0.0439209
C	-0.372017	-0.595035	0.998712
C	-0.754424	0.637602	0.557413
O	-0.116794	0.959474	-0.598804
H	1.29835	-0.0257306	-1.81218
H	1.10601	-2.04107	0.0633509
H	-0.721976	-1.11383	1.90561
H	-1.46256	1.37472	0.970282
C	4.42124	-0.298596	-0.830339
C	5.57043	0.443681	-1.0022
N	6.2329	0.597106	0.170016
C	5.49749	-0.0475378	1.06569
N	4.39456	-0.60477	0.511948
H	3.64638	-0.619896	-1.54442
H	5.93341	0.87127	-1.95102
H	5.72046	-0.142791	2.1406
H	3.65921	-1.16357	1.0102
