18
  This energy is -0.6963 and Call times are: 174693
C	-0.212305	-0.267363	-1.08159
C	0.979829	-0.546662	-0.480608
C	0.864677	-0.06489	0.859076
C	-0.387659	0.466283	0.958489
O	-1.05934	0.351226	-0.217361
H	-0.576905	-0.455087	-2.10486
H	1.85272	-1.04223	-0.935097
H	1.63054	-0.112655	1.64981
H	-0.912482	0.948898	1.79926
C	6.21542	0.440075	-1.07006
C	5.11374	-0.293341	-0.683351
N	5.19184	-0.639688	0.624492
C	6.33761	-0.123101	1.04753
N	6.99177	0.537577	0.0630636
H	6.49264	0.884683	-2.03908
H	4.26393	-0.578791	-1.3246
H	6.74558	-0.198762	2.06835
H	7.91454	1.03023	0.146975
