18
  This energy is -1.0113 and Call times are: 89591
C	-0.211592	-0.401945	1.03926
C	-1.20695	-0.0749499	0.165935
C	-0.553109	0.386421	-1.01717
C	0.784088	0.300633	-0.762382
O	1.01084	-0.178884	0.488882
H	-0.24212	-0.798017	2.06759
H	-2.29269	-0.151006	0.337639
H	-1.0311	0.739205	-1.94516
H	1.66332	0.546513	-1.38024
C	4.80692	0.876749	-0.368846
C	4.53574	-0.0244809	0.63882
N	5.55677	-0.901203	0.79808
C	6.45795	-0.545221	-0.107342
N	6.05263	0.521658	-0.836091
H	4.22114	1.7176	-0.773019
H	3.62165	-0.0578155	1.25378
H	7.4317	-1.03147	-0.279385
H	6.58574	0.989249	-1.60966
