18
  This energy is -1.1029 and Call times are: 72380
C	-0.356169	-1.07459	0.0693451
C	-0.291756	-0.254772	1.15752
C	0.196393	0.997832	0.675018
C	0.387188	0.83289	-0.665417
O	0.0547682	-0.426754	-1.05246
H	-0.672783	-2.12518	-0.0368026
H	-0.560983	-0.506829	2.19583
H	0.380897	1.91006	1.26484
H	0.749785	1.52518	-1.44292
C	5.28261	-0.958173	-0.0322287
C	5.0079	-0.174515	1.06848
N	4.18294	0.850739	0.744732
C	3.94677	0.703681	-0.551888
N	4.58727	-0.372642	-1.06656
H	5.90302	-1.86097	-0.148791
H	5.39016	-0.330521	2.09043
H	3.31237	1.35568	-1.1737
H	4.55946	-0.698934	-2.06356
