18
  This energy is -0.9635 and Call times are: 8406
C	0.481308	-0.475019	0.91055
C	0.411161	0.876789	0.743017
C	-0.254445	1.08222	-0.503933
C	-0.532283	-0.162189	-0.988317
O	-0.0900056	-1.1251	-0.137311
H	0.906586	-1.09025	1.72041
H	0.790118	1.65156	1.42874
H	-0.494164	2.04794	-0.977241
H	-1.03313	-0.49159	-1.91346
C	5.87176	-0.493268	0.617908
C	5.71238	-0.516014	-0.751481
N	4.59499	0.153891	-1.12455
C	4.0632	0.590568	0.00908908
N	4.7959	0.226276	1.08799
H	6.64873	-0.923836	1.26943
H	6.38363	-1.0038	-1.47698
H	3.13828	1.18158	0.106341
H	4.58468	0.44944	2.0914
