18
  This energy is -0.8893 and Call times are: 80989
C	-0.555249	-0.145818	-0.97818
C	0.802648	-0.237587	-0.888367
C	1.121	0.00385094	0.482937
C	-0.0704577	0.221846	1.11005
O	-1.10479	0.134239	0.232847
H	-1.24052	-0.257433	-1.83445
H	1.50923	-0.453626	-1.70578
H	2.12349	0.0122274	0.940143
H	-0.312773	0.446168	2.16182
C	5.23002	0.980833	-0.313348
C	4.84712	-0.317856	-0.573985
N	5.74011	-1.2018	-0.0663394
C	6.67346	-0.454335	0.507047
N	6.41134	0.868561	0.385272
H	4.76111	1.94481	-0.567114
H	3.9425	-0.63287	-1.11923
H	7.57007	-0.82426	1.03
H	6.99652	1.65825	0.752987
