18
  This energy is -1.4115 and Call times are: 92736
C	-0.945018	0.442025	-0.444921
C	0.0906754	0.00469864	-1.21723
C	1.08146	-0.475317	-0.307256
C	0.563757	-0.288947	0.940791
O	-0.67318	0.270285	0.875541
H	-1.91691	0.889439	-0.710435
H	0.150906	0.0187238	-2.31735
H	2.06262	-0.907462	-0.561567
H	0.970444	-0.509427	1.94141
C	4.29791	0.461838	0.899606
C	5.25731	-0.526212	0.966391
N	5.74584	-0.816875	-0.263797
C	5.092	-0.0122044	-1.09061
N	4.20771	0.778396	-0.437496
H	3.69316	0.945952	1.68283
H	5.60576	-1.03456	1.88018
H	5.2219	0.0392354	-2.18364
H	3.57409	1.49582	-0.867717
