18
  This energy is -0.5661 and Call times are: 70100
C	1.12489	-0.0756362	0.123741
C	0.458348	1.11099	0.213344
C	-0.920352	0.801762	0.00433138
C	-0.974609	-0.546525	-0.194544
O	0.265338	-1.09853	-0.125015
H	2.19544	-0.321674	0.216669
H	0.893859	2.10439	0.407178
H	-1.76633	1.50775	0.0038899
H	-1.82238	-1.22282	-0.392436
C	6.98196	0.0650293	0.776539
C	6.8112	-0.889479	-0.203716
N	5.68391	-0.658523	-0.919534
C	5.15734	0.435105	-0.385383
N	5.90285	0.909563	0.640624
H	7.76877	0.198614	1.53589
H	7.4812	-1.74066	-0.407286
H	4.2273	0.930922	-0.70698
H	5.69788	1.75894	1.22184
