18
  This energy is -1.0435 and Call times are: 126943
C	-0.351672	-1.07717	0.0493008
C	-0.818435	-0.198388	-0.883569
C	-0.149757	1.03717	-0.625898
C	0.666596	0.804341	0.441685
O	0.556052	-0.481727	0.866916
H	-0.58344	-2.13898	0.233972
H	-1.5593	-0.399999	-1.67387
H	-0.26909	1.98399	-1.17669
H	1.36523	1.46169	0.98488
C	5.46777	-0.871082	0.74472
C	4.29157	-0.152964	0.699886
N	4.32423	0.777206	-0.285116
C	5.51615	0.636674	-0.849204
N	6.24323	-0.344354	-0.263945
H	5.79686	-1.69228	1.40113
H	3.41998	-0.28935	1.36062
H	5.90749	1.22601	-1.69405
H	7.21292	-0.64621	-0.528204
