18
  This energy is -0.8698 and Call times are: 150621
C	0.194526	-0.223294	-1.09485
C	0.854546	0.762606	-0.421986
C	0.343221	0.735811	0.911411
C	-0.584124	-0.264097	0.935656
O	-0.687901	-0.860571	-0.281086
H	0.261473	-0.565922	-2.1405
H	1.62426	1.4407	-0.824262
H	0.637664	1.389	1.74852
H	-1.22864	-0.644008	1.7453
C	6.44506	0.616238	-0.539644
C	6.59628	-0.569159	0.148186
N	5.41118	-1.00133	0.643427
C	4.52811	-0.0875226	0.264272
N	5.10222	0.908167	-0.451683
H	7.1737	1.25153	-1.06788
H	7.53927	-1.12032	0.29598
H	3.44833	-0.0985636	0.483796
H	4.61687	1.7434	-0.861664
