18
  This energy is -0.8225 and Call times are: 185178
C	-0.24201	1.10155	-0.120126
C	-1.10647	0.223304	0.464496
C	-0.455075	-1.0474	0.430989
C	0.749933	-0.833491	-0.171149
O	0.896824	0.473293	-0.514294
H	-0.318694	2.18426	-0.312718
H	-2.10288	0.447774	0.877866
H	-0.846023	-2.00404	0.813215
H	1.5796	-1.51883	-0.410362
C	4.96458	-0.391193	0.831399
C	4.62456	0.0803637	-0.418865
N	5.72539	0.448391	-1.11831
C	6.74447	0.206069	-0.305059
N	6.33768	-0.300884	0.882841
H	4.34721	-0.771942	1.6605
H	3.60464	0.16163	-0.828762
H	7.80904	0.381417	-0.529084
H	6.95134	-0.573249	1.68937
