18
  This energy is -2.0687 and Call times are: 134050
C	0.581703	-0.521608	-0.82216
C	0.545404	0.836547	-0.701863
C	-0.276105	1.10656	0.434945
C	-0.669298	-0.110428	0.908981
O	-0.154664	-1.11597	0.153296
H	1.0883	-1.17794	-1.54868
H	1.04683	1.57424	-1.34876
H	-0.538269	2.09523	0.8447
H	-1.30575	-0.391064	1.76421
C	4.11065	-0.642593	-0.905857
C	5.24877	0.134998	-0.871547
N	5.39206	0.73854	0.333326
C	4.34681	0.336897	1.04378
N	3.5444	-0.497178	0.340898
H	3.67804	-1.26827	-1.70267
H	5.9691	0.271349	-1.69459
H	4.12059	0.623141	2.08355
H	2.65951	-0.947321	0.680897
