18
  This energy is -1.0119 and Call times are: 32341
C	-1.065	-0.309801	0.237072
C	-0.0016364	-0.716292	0.988338
C	1.15149	-0.128883	0.383873
C	0.690986	0.584711	-0.683412
O	-0.660381	0.485401	-0.788087
H	-2.14446	-0.51469	0.326757
H	-0.0267521	-1.36474	1.87883
H	2.19819	-0.231336	0.712523
H	1.21598	1.19714	-1.43478
C	4.94219	-0.75746	0.863064
C	5.23104	-1.06559	-0.449476
N	5.4809	0.0542085	-1.17068
C	5.34755	1.05324	-0.308825
N	5.02321	0.615503	0.930846
H	4.69302	-1.39672	1.72492
H	5.26364	-2.07584	-0.888999
H	5.47625	2.12449	-0.532598
H	4.86383	1.20894	1.78155
