18
  This energy is -1.4892 and Call times are: 105264
C	0.248176	0.638226	-0.904144
C	-0.448068	-0.530392	-1.0039
C	-0.55892	-1.03438	0.327954
C	0.079368	-0.129252	1.12401
O	0.578333	0.89868	0.388207
H	0.568082	1.36612	-1.66774
H	-0.84388	-0.991279	-1.92314
H	-1.05777	-1.96372	0.646654
H	0.245033	-0.102609	2.21355
C	3.86238	0.0166771	-0.916916
C	3.65938	-0.604456	0.29722
N	4.71748	-0.419737	1.12354
C	5.57365	0.313203	0.424686
N	5.10416	0.602487	-0.812037
H	3.23208	0.0811299	-1.81809
H	2.76838	-1.18257	0.59178
H	6.55869	0.665861	0.770458
H	5.59297	1.16572	-1.55034
