18
  This energy is -0.7852 and Call times are: 202480
C	0.856459	0.688771	-0.28013
C	0.733637	-0.569492	-0.79205
C	-0.451474	-1.11442	-0.210083
C	-0.948238	-0.141045	0.606094
O	-0.162052	0.967102	0.575545
H	1.61291	1.47387	-0.44339
H	1.40976	-1.06428	-1.50769
H	-0.876905	-2.11571	-0.38479
H	-1.84075	-0.114158	1.25258
C	6.73639	0.572007	0.425539
C	6.70987	-0.28217	-0.656507
N	5.46141	-0.765398	-0.867088
C	4.71625	-0.213102	0.0807143
N	5.43883	0.601502	0.885622
H	7.55934	1.14195	0.885375
H	7.5692	-0.558434	-1.28902
H	3.63607	-0.370834	0.230964
H	5.07916	1.15088	1.7042
