18
  This energy is -2.0593 and Call times are: 131954
C	-0.429018	0.809614	-0.668484
C	-0.351614	-0.49498	-1.05889
C	0.236443	-1.19691	0.0372848
C	0.466479	-0.259291	1.00078
O	0.0661447	0.971686	0.586729
H	-0.810361	1.70586	-1.18478
H	-0.676072	-0.920344	-2.02216
H	0.458579	-2.27471	0.092903
H	0.903358	-0.339708	2.0097
C	3.85785	-0.913339	-0.0108194
C	5.21239	-0.94468	-0.266538
N	5.75723	0.292129	-0.166744
C	4.74455	1.08773	0.149682
N	3.57796	0.408401	0.255355
H	3.09861	-1.71145	0.00021275
H	5.8063	-1.83756	-0.521257
H	4.80163	2.1756	0.315572
H	2.63912	0.811724	0.49449
