18
  This energy is -1.6672 and Call times are: 118365
C	-0.597963	-0.777994	-0.56883
C	0.518755	-0.191774	-1.08812
C	0.983266	0.717681	-0.089501
C	0.109399	0.606932	0.951875
O	-0.86264	-0.302039	0.676331
H	-1.28326	-1.5375	-0.979644
H	0.970113	-0.380818	-2.07536
H	1.86638	1.37397	-0.148528
H	0.0704208	1.11284	1.93054
C	4.26028	0.0425779	1.1678
C	4.68622	1.06574	0.347516
N	4.7318	0.667403	-0.946997
C	4.33565	-0.598058	-0.929858
N	4.03989	-1.02141	0.321898
H	4.10363	-0.00218805	2.25729
H	4.96145	2.08422	0.666556
H	4.24397	-1.26097	-1.80529
H	3.70627	-1.97792	0.595839
