18
  This energy is -0.7441 and Call times are: 193783
C	-0.636184	-0.760682	-0.550484
C	-0.162239	-0.97984	0.709563
C	0.583352	0.188287	1.05553
C	0.499209	1.01815	-0.023648
O	-0.241854	0.454605	-1.01373
H	-1.25642	-1.38251	-1.21674
H	-0.32168	-1.87435	1.33288
H	1.11693	0.379539	2.00041
H	0.916387	2.02166	-0.208526
C	6.66391	0.043692	0.16882
C	6.00636	-0.0658716	-1.03814
N	4.66281	-0.0880047	-0.862372
C	4.48752	0.00746501	0.448653
N	5.66385	0.0894249	1.11433
H	7.73693	0.0907818	0.413643
H	6.47731	-0.129347	-2.03264
H	3.51914	0.0219725	0.97425
H	5.79003	0.172064	2.15284
