18
  This energy is -1.5391 and Call times are: 5826
C	-0.93688	0.54194	-0.339054
C	-0.0408598	1.1019	0.523481
C	0.987419	0.127531	0.706136
C	0.628992	-0.941839	-0.0609045
O	-0.543627	-0.706087	-0.706193
H	-1.88047	0.923394	-0.762589
H	-0.0982624	2.10088	0.984822
H	1.88579	0.220843	1.33725
H	1.11615	-1.91613	-0.230293
C	4.50968	-1.17685	-0.00440744
C	4.68298	-0.351985	1.08679
N	4.61219	0.953154	0.728856
C	4.39581	0.938016	-0.579414
N	4.32598	-0.322651	-1.06873
H	4.50426	-2.27465	-0.0958189
H	4.85781	-0.675195	2.12593
H	4.28064	1.8213	-1.22809
H	4.16296	-0.597086	-2.06842
