18
  This energy is -0.5039 and Call times are: 139732
C	-1.01151	-0.272936	-0.434468
C	-0.776662	0.925686	0.172597
C	0.591387	0.895208	0.582025
C	1.07177	-0.319348	0.189012
O	0.106407	-1.04578	-0.433394
H	-1.91859	-0.69075	-0.901248
H	-1.49476	1.74874	0.31754
H	1.14488	1.68993	1.10753
H	2.06819	-0.779571	0.291912
C	5.84223	-0.165139	1.02309
C	5.40135	-0.537247	-0.229229
N	6.29729	-0.191435	-1.18538
C	7.2902	0.392982	-0.528726
N	7.06317	0.433351	0.805596
H	5.38867	-0.280043	2.0204
H	4.45284	-1.04905	-0.459983
H	8.20726	0.809246	-0.975899
H	7.69655	0.842592	1.5354
