18
  This energy is -1.9888 and Call times are: 171365
C	-0.138578	1.07292	0.340631
C	-0.18335	0.0200812	1.20659
C	0.0311602	-1.14811	0.413228
C	0.188081	-0.706009	-0.867512
O	0.0874059	0.64785	-0.930295
H	-0.25112	2.15761	0.502037
H	-0.350651	0.0618935	2.29488
H	0.0632452	-2.19213	0.764083
H	0.374009	-1.24675	-1.81
C	3.40928	0.86381	-0.11698
C	4.48902	0.840855	0.740211
N	5.19071	-0.311346	0.611459
C	4.54872	-1.00056	-0.322055
N	3.46764	-0.334653	-0.792606
H	2.62951	1.62286	-0.288296
H	4.77431	1.63503	1.44926
H	4.8273	-1.99792	-0.69875
H	2.80093	-0.667831	-1.53136
