18
  This energy is -1.0079 and Call times are: 198115
C	0.324835	-0.76499	-0.771799
C	0.0692099	-1.09949	0.525559
C	-0.30669	0.115415	1.1758
C	-0.247589	1.08508	0.218396
O	0.136389	0.565176	-0.977125
H	0.643605	-1.37294	-1.63437
H	0.138414	-2.10127	0.979151
H	-0.586882	0.242884	2.23379
H	-0.451846	2.16756	0.260571
C	5.9832	-0.379464	0.523843
C	5.86697	0.117729	-0.756952
N	4.58556	0.461458	-1.03326
C	3.90941	0.178582	0.0719231
N	4.70749	-0.330884	1.03996
H	6.85439	-0.751988	1.0858
H	6.68477	0.234588	-1.48662
H	2.82819	0.32484	0.226195
H	4.41095	-0.631587	2.00064
