18
  This energy is -1.4507 and Call times are: 126590
C	0.816945	0.534231	-0.57758
C	0.998579	-0.701339	-0.0291736
C	-0.237032	-1.03261	0.606155
C	-1.06465	0.0297712	0.389904
O	-0.437372	0.99584	-0.331372
H	1.49295	1.18275	-1.15869
H	1.91113	-1.31765	-0.0681292
H	-0.472978	-1.95683	1.15773
H	-2.10788	0.217363	0.692792
C	5.68845	0.120345	-1.15546
C	6.62162	0.242142	-0.147738
N	6.05742	0.0399398	1.06771
C	4.77911	-0.206361	0.814976
N	4.50657	-0.169254	-0.510894
H	5.77877	0.216067	-2.24918
H	7.69187	0.472294	-0.275909
H	3.99938	-0.420208	1.56365
H	3.57283	-0.330391	-0.961926
