18
  This energy is -0.8226 and Call times are: 85119
C	0.0817824	1.11896	-0.166238
C	-0.626161	0.306168	-1.00203
C	-0.494251	-1.01255	-0.469405
C	0.282655	-0.889196	0.644854
O	0.643474	0.405691	0.845077
H	0.260145	2.20671	-0.182023
H	-1.18518	0.605244	-1.90322
H	-0.930663	-1.93922	-0.875521
H	0.644557	-1.63632	1.37017
C	6.3805	0.11222	0.641181
C	6.28479	-0.370414	-0.646859
N	5.00016	-0.360164	-1.0783
C	4.30159	0.126976	-0.0617806
N	5.08848	0.427102	0.998555
H	7.24768	0.249312	1.30657
H	7.11964	-0.725842	-1.27259
H	3.21123	0.284811	-0.0405147
H	4.77423	0.824039	1.91776
