18
  This energy is -2.2595 and Call times are: 92407
C	0.230912	0.389664	-1.03983
C	0.169165	1.20781	0.0497609
C	-0.140277	0.360951	1.15755
C	-0.240308	-0.899934	0.647125
O	-0.0165909	-0.900968	-0.693383
H	0.439225	0.600593	-2.1016
H	0.325809	2.29826	0.0712392
H	-0.271256	0.664262	2.20871
H	-0.462552	-1.86732	1.12673
C	4.65835	-0.207366	-1.12931
C	5.53269	-0.226906	-0.0633392
N	4.89425	0.0580436	1.09757
C	3.62866	0.253615	0.753107
N	3.43538	0.104914	-0.578853
H	4.81467	-0.387572	-2.20478
H	6.61274	-0.441506	-0.11111
H	2.80236	0.508051	1.43627
H	2.52697	0.207887	-1.09407
