18
  This energy is -1.0405 and Call times are: 145909
C	-0.120976	0.250053	1.09965
C	1.09155	0.269211	0.475324
C	0.838235	-0.0961629	-0.882045
C	-0.506726	-0.306341	-0.967359
O	-1.10831	-0.0993846	0.233588
H	-0.410017	0.462522	2.14204
H	2.06654	0.515889	0.925481
H	1.57777	-0.189097	-1.69355
H	-1.14823	-0.602253	-1.81362
C	4.65543	-0.664801	-0.225634
C	5.2509	-0.462414	1.00139
N	6.32065	0.362744	0.895214
C	6.38855	0.67109	-0.392783
N	5.40636	0.0763269	-1.11052
H	3.77965	-1.2638	-0.521867
H	4.92782	-0.897005	1.96139
H	7.13739	1.32799	-0.863898
H	5.2472	0.16321	-2.14414
