18
  This energy is -1.0829 and Call times are: 153330
C	-0.599302	-0.828501	-0.490738
C	-0.51568	-0.691335	0.863724
C	0.314413	0.448629	1.09076
C	0.664769	0.907446	-0.145
O	0.115591	0.139391	-1.1225
H	-1.12827	-1.56306	-1.11992
H	-0.99087	-1.32895	1.62644
H	0.610787	0.870606	2.06452
H	1.29079	1.75904	-0.458277
C	5.69439	0.341409	0.684544
C	4.35259	0.370245	1.00061
N	3.59909	-0.0977865	-0.0239287
C	4.47012	-0.415768	-0.971991
N	5.74659	-0.169459	-0.59314
H	6.58605	0.63837	1.25925
H	3.9147	0.720375	1.94956
H	4.22721	-0.832675	-1.96265
H	6.6113	-0.335936	-1.16396
