18
  This energy is -0.6967 and Call times are: 186618
C	-0.425137	0.61945	0.849671
C	-1.1129	0.396445	-0.306889
C	-0.261061	-0.413479	-1.11838
C	0.872045	-0.613909	-0.386073
O	0.789091	0.00978262	0.818559
H	-0.686499	1.18702	1.75786
H	-2.11913	0.765288	-0.562894
H	-0.475521	-0.797454	-2.12866
H	1.79593	-1.17327	-0.606994
C	5.82865	0.739071	-0.8094
C	4.77252	-0.133993	-0.962703
N	4.54912	-0.835244	0.175213
C	5.46318	-0.398876	1.03119
N	6.25891	0.550953	0.485079
H	6.28913	1.45698	-1.50661
H	4.16773	-0.270475	-1.87399
H	5.59426	-0.740843	2.07047
H	7.05243	1.04915	0.957712
