18
  This energy is -0.5398 and Call times are: 149436
C	-0.901429	0.463868	-0.508581
C	0.344399	0.490883	-1.06316
C	1.1987	-0.183911	-0.138529
C	0.399505	-0.563716	0.899456
O	-0.88623	-0.1763	0.690154
H	-1.86781	0.859312	-0.86212
H	0.632851	0.940858	-2.0267
H	2.28121	-0.361154	-0.242633
H	0.621799	-1.10718	1.83245
C	6.75968	-1.11261	0.133511
C	5.47279	-0.682788	-0.112091
N	5.41895	0.667815	-0.209465
C	6.66768	1.07433	-0.0249735
N	7.51382	0.0383584	0.185751
H	7.17822	-2.12239	0.270251
H	4.5822	-1.32301	-0.220774
H	7.01776	2.11912	-0.0340893
H	8.54742	0.100149	0.35641
