18
  This energy is -0.9693 and Call times are: 102942
C	0.316772	0.475046	-0.979994
C	0.711554	-0.778355	-0.614608
C	0.118268	-1.01846	0.662294
C	-0.586689	0.109406	0.964483
O	-0.476583	1.03195	-0.027387
H	0.529451	1.0753	-1.87983
H	1.35591	-1.46496	-1.18686
H	0.211171	-1.92825	1.27691
H	-1.19951	0.375577	1.84133
C	6.36079	-0.193513	-0.0146197
C	5.55042	-0.105914	1.09748
N	4.26201	0.124711	0.746293
C	4.27305	0.179975	-0.578641
N	5.51507	-0.00592735	-1.08502
H	7.44334	-0.370173	-0.116661
H	5.87232	-0.204988	2.14697
H	3.39988	0.353998	-1.22789
H	5.78278	-0.00696682	-2.09971
