18
  This energy is -0.9126 and Call times are: 69370
C	-0.626137	-0.59155	-0.73785
C	-0.238742	0.694567	-0.974919
C	0.522905	1.09025	0.166766
C	0.533707	0.011001	1.00072
O	-0.1632	-1.02506	0.464138
H	-1.22453	-1.29715	-1.33728
H	-0.466483	1.30354	-1.86452
H	1.00311	2.06701	0.338357
H	0.995073	-0.144043	1.98984
C	4.21303	0.345606	-0.290088
C	4.91171	0.682083	0.849987
N	6.13824	0.105835	0.859347
C	6.20022	-0.585501	-0.270625
N	5.06398	-0.473015	-0.998561
H	3.20415	0.621564	-0.635846
H	4.55278	1.33032	1.66596
H	7.0539	-1.19166	-0.614195
H	4.8685	-0.923564	-1.92595
