18
  This energy is -1.0294 and Call times are: 117723
C	-0.502831	0.839779	-0.573004
C	0.808744	0.891582	-0.202244
C	1.06822	-0.331075	0.489056
C	-0.107692	-1.0221	0.479713
O	-1.07798	-0.32191	-0.164722
H	-1.13589	1.55524	-1.12309
H	1.52195	1.7088	-0.396113
H	2.02262	-0.650308	0.937745
H	-0.37971	-2.00784	0.891499
C	4.64041	0.826324	-0.353985
C	5.27385	-0.108766	-1.14487
N	6.08255	-0.906491	-0.405857
C	5.95131	-0.467955	0.838766
N	5.09262	0.575728	0.922296
H	3.92374	1.62569	-0.600829
H	5.16183	-0.222117	-2.2355
H	6.46088	-0.874889	1.72701
H	4.82276	1.09507	1.79334
