18
  This energy is -0.7925 and Call times are: 105370
C	-0.699735	0.090727	0.887998
C	-0.153033	-1.09952	0.507468
C	0.658092	-0.810664	-0.632161
C	0.535454	0.5306	-0.847439
O	-0.290065	1.09706	0.0716138
H	-1.38581	0.350316	1.7109
H	-0.305641	-2.08232	0.981715
H	1.25942	-1.52497	-1.21719
H	0.977984	1.1921	-1.61022
C	4.50833	-0.0412393	-0.437784
C	5.1463	1.06025	0.0921774
N	6.39938	0.748344	0.503288
C	6.53826	-0.541744	0.22941
N	5.42549	-1.0636	-0.338919
H	3.50021	-0.165763	-0.864059
H	4.72487	2.07444	0.185267
H	7.43382	-1.15348	0.424298
H	5.28766	-2.05764	-0.64578
