18
  This energy is -1.3521 and Call times are: 208711
C	-0.455151	-0.874857	-0.560236
C	0.376824	-1.04433	0.507224
C	0.736746	0.270061	0.934966
C	0.0929398	1.1267	0.0911333
O	-0.639545	0.444675	-0.828278
H	-0.974031	-1.6026	-1.20553
H	0.70423	-1.99913	0.949092
H	1.3987	0.536968	1.77442
H	0.0748547	2.2278	0.0410001
C	3.92528	0.00976282	-0.479552
C	5.04675	-0.621164	-0.97491
N	6.11586	-0.423896	-0.165833
C	5.65937	0.326557	0.827676
N	4.34413	0.614955	0.684276
H	2.89321	0.0689412	-0.860178
H	5.10361	-1.21518	-1.9016
H	6.24538	0.693177	1.68582
H	3.75559	1.19001	1.33558
