18
  This energy is -1.1411 and Call times are: 206988
C	-0.181869	0.175867	1.10562
C	-0.873677	-0.757439	0.390977
C	-0.369315	-0.681137	-0.943158
C	0.586177	0.29206	-0.926011
O	0.713875	0.826202	0.317128
H	-0.233067	0.469625	2.16691
H	-1.66025	-1.43195	0.765718
H	-0.687087	-1.28473	-1.80849
H	1.23675	0.691985	-1.72104
C	4.04453	-0.344077	-1.0292
C	4.58432	-1.1527	-0.0514984
N	5.0159	-0.421073	1.00442
C	4.74488	0.83665	0.68301
N	4.15875	0.935598	-0.533647
H	3.60197	-0.580815	-2.00983
H	4.6701	-2.25092	-0.0890822
H	4.95458	1.72392	1.30188
H	3.85012	1.81885	-1.0089
