18
  This energy is -0.5284 and Call times are: 1940
C	-0.926549	0.159791	0.63433
C	0.308613	0.586571	1.02498
C	1.20269	0.207165	-0.0222982
C	0.434965	-0.417971	-0.960472
O	-0.867974	-0.455858	-0.575859
H	-1.91294	0.232374	1.12117
H	0.564456	1.1155	1.95711
H	2.28958	0.383436	-0.0635979
H	0.6926	-0.873294	-1.93081
C	6.04861	1.14774	0.0677251
C	5.37077	0.193781	-0.661408
N	5.93433	-1.02923	-0.509221
C	6.9579	-0.834724	0.311205
N	7.06896	0.461339	0.687337
H	5.88263	2.23038	0.185591
H	4.48517	0.366061	-1.29456
H	7.65832	-1.60658	0.668823
H	7.79418	0.866192	1.32876
