18
  This energy is -0.6614 and Call times are: 185562
C	-0.584561	-0.0169162	-0.971804
C	-1.17531	0.234264	0.23165
C	-0.128973	0.170108	1.2018
C	1.00881	-0.114614	0.505545
O	0.749074	-0.232239	-0.823257
H	-0.998034	-0.0697766	-1.99234
H	-2.24098	0.443713	0.417553
H	-0.22209	0.319923	2.28945
H	2.0512	-0.256743	0.834872
C	6.37166	-1.01796	-0.148523
C	5.00581	-0.835042	-0.102205
N	4.69366	0.470801	0.0817749
C	5.86142	1.09562	0.149337
N	6.90364	0.241455	0.0159711
H	6.98235	-1.92497	-0.282432
H	4.24	-1.62191	-0.198244
H	6.01069	2.17756	0.295434
H	7.92277	0.491037	0.0343698
