18
  This energy is -1.1596 and Call times are: 58008
C	0.727469	0.863474	0.107714
C	-0.00348723	0.388978	1.15697
C	-0.78953	-0.682402	0.633134
C	-0.469523	-0.768032	-0.689982
O	0.455445	0.168519	-1.02809
H	1.46552	1.67958	0.0405508
H	0.00954344	0.756552	2.19563
H	-1.50712	-1.31067	1.1849
H	-0.825177	-1.44265	-1.48601
C	4.7867	-0.941509	0.645336
C	4.47151	0.316961	1.1123
N	4.19165	1.16152	0.0900868
C	4.33269	0.429772	-1.00685
N	4.69068	-0.845363	-0.724965
H	5.0633	-1.86779	1.17357
H	4.44102	0.630674	2.16847
H	4.18596	0.777766	-2.04204
H	4.86239	-1.61427	-1.41819
