18
  This energy is -0.6886 and Call times are: 77106
C	0.790232	0.803997	-0.124595
C	-0.198449	0.890341	0.811048
C	-0.983786	-0.293156	0.660389
C	-0.405685	-0.998243	-0.35402
O	0.678981	-0.342975	-0.845075
H	1.62163	1.48338	-0.374546
H	-0.358648	1.70565	1.53472
H	-1.87395	-0.577896	1.24402
H	-0.667007	-1.96558	-0.813599
C	4.50074	0.0897604	0.410675
C	5.65909	0.0194009	1.15525
N	6.74886	-0.0776615	0.355559
C	6.26838	-0.0675553	-0.880429
N	4.91808	0.0319138	-0.900303
H	3.4442	0.174088	0.710929
H	5.72804	0.0369341	2.25516
H	6.86102	-0.130463	-1.80728
H	4.30575	0.0596793	-1.75209
