18
  This energy is -0.7047 and Call times are: 201743
C	0.283692	-0.559842	-0.944721
C	0.769208	0.682104	-0.657982
C	0.191426	1.04786	0.596014
C	-0.596158	-0.00286533	0.964877
O	-0.551711	-0.993553	0.0355898
H	0.454046	-1.23139	-1.80219
H	1.46447	1.28062	-1.2683
H	0.349642	1.98634	1.15128
H	-1.22973	-0.165505	1.85222
C	6.41977	-0.832463	-0.417176
C	6.67986	0.0458349	0.613402
N	5.62669	0.870739	0.829916
C	4.7167	0.505578	-0.0629475
N	5.14722	-0.517471	-0.838586
H	7.02984	-1.63266	-0.865552
H	7.60856	0.0990848	1.20461
H	3.71835	0.953728	-0.192147
H	4.61333	-0.982177	-1.61336
