18
  This energy is -0.8262 and Call times are: 138142
C	-0.328199	0.622276	-0.88964
C	0.475006	-0.472322	-1.02038
C	0.662977	-0.97949	0.301578
C	-0.0419538	-0.150044	1.12344
O	-0.653566	0.833804	0.412821
H	-0.733339	1.32515	-1.63602
H	0.89317	-0.881551	-1.95406
H	1.25586	-1.86013	0.596641
H	-0.18555	-0.152848	2.21643
C	6.2116	0.621937	-0.582749
C	6.09931	0.483711	0.784522
N	5.047	-0.305287	1.11109
C	4.50852	-0.655202	-0.0491803
N	5.17458	-0.121551	-1.10045
H	6.93204	1.17821	-1.20328
H	6.75873	0.939151	1.54121
H	3.6258	-1.30037	-0.186317
H	4.94481	-0.249743	-2.11634
