18
  This energy is -2.0682 and Call times are: 180532
C	-0.115235	-0.85547	-0.735727
C	-0.538416	0.410618	-1.01557
C	-0.224181	1.19187	0.138125
C	0.363285	0.334227	1.02113
O	0.437975	-0.92034	0.503936
H	-0.149985	-1.78535	-1.3268
H	-1.02322	0.759401	-1.94154
H	-0.416909	2.26682	0.284516
H	0.765761	0.491383	2.03532
C	4.51301	-0.243232	-1.15142
C	5.59983	0.050555	-0.355387
N	5.21997	0.279187	0.925216
C	3.9025	0.127813	0.923642
N	3.42836	-0.187656	-0.304877
H	4.43723	-0.480016	-2.2246
H	6.65124	0.101645	-0.682138
H	3.23606	0.236486	1.79443
H	2.42555	-0.357544	-0.563276
