18
  This energy is -0.7876 and Call times are: 199246
C	-0.778061	0.763462	0.313286
C	-0.60944	0.38323	-0.9857
C	0.44711	-0.577892	-0.977764
C	0.830862	-0.700144	0.325371
O	0.0932295	0.111798	1.12766
H	-1.47397	1.47905	0.781157
H	-1.17258	0.743436	-1.86161
H	0.866026	-1.11104	-1.8463
H	1.60504	-1.32186	0.804286
C	6.54491	0.251825	0.654845
C	6.48425	-0.624793	-0.407701
N	5.23573	-0.670624	-0.932679
C	4.52454	0.174349	-0.198605
N	5.26881	0.755909	0.771677
H	7.37807	0.542905	1.31412
H	7.31899	-1.22502	-0.804926
H	3.45485	0.404845	-0.328448
H	4.93698	1.45719	1.47832
