18
  This energy is -1.2878 and Call times are: 53971
C	-0.851326	-0.749345	0.0112134
C	-0.25	-0.34424	-1.14407
C	0.759311	0.587881	-0.753479
C	0.685662	0.670096	0.606002
O	-0.292507	-0.139928	1.0898
H	-1.6763	-1.45656	0.196981
H	-0.492825	-0.669208	-2.16853
H	1.45463	1.12931	-1.4149
H	1.26505	1.25983	1.33523
C	4.3411	-0.913457	-0.583179
C	3.93144	-0.421028	0.637819
N	4.68421	0.641294	1.01373
C	5.55755	0.807268	0.0296864
N	5.39166	-0.105413	-0.956764
H	3.9717	-1.75369	-1.19235
H	3.10619	-0.813234	1.25425
H	6.34018	1.58143	-0.0193015
H	5.95584	-0.182755	-1.83823
