18
  This energy is -1.0953 and Call times are: 139283
C	0.964427	0.0532436	-0.594514
C	0.925838	-0.382684	0.697327
C	-0.443773	-0.305596	1.09525
C	-1.12123	0.170634	0.011442
O	-0.27686	0.395292	-1.02951
H	1.80104	0.165558	-1.30354
H	1.77651	-0.724262	1.3087
H	-0.866148	-0.575521	2.07649
H	-2.19029	0.390209	-0.143916
C	5.30066	-0.978604	-0.622648
C	6.26005	-0.79844	0.351133
N	6.20781	0.455478	0.862476
C	5.21977	1.05095	0.208407
N	4.64118	0.227883	-0.697903
H	5.04895	-1.85089	-1.24658
H	6.98901	-1.55076	0.693906
H	4.87824	2.08847	0.35375
H	3.8424	0.463853	-1.33629
