18
  This energy is -0.8909 and Call times are: 46297
C	-0.447803	-0.867345	-0.577569
C	-1.12437	0.298568	-0.369522
C	-0.243964	1.13211	0.385602
C	0.892881	0.401986	0.572339
O	0.785859	-0.821668	-0.0092352
H	-0.730394	-1.79218	-1.10679
H	-2.14138	0.546727	-0.713319
H	-0.44265	2.15505	0.743686
H	1.83528	0.636945	1.0938
C	4.84723	-0.891065	-0.40619
C	4.71435	-0.25518	0.810007
N	5.63514	0.729241	0.949877
C	6.33659	0.70416	-0.17527
N	5.90028	-0.255413	-1.02524
H	4.28569	-1.72318	-0.859828
H	3.97056	-0.489072	1.58907
H	7.1803	1.36616	-0.428552
H	6.28994	-0.4736	-1.97488
