18
  This energy is -0.651 and Call times are: 44940
C	-0.778635	-0.455416	0.68755
C	0.559083	-0.544849	0.938325
C	1.20492	0.139796	-0.136044
C	0.204855	0.587168	-0.948508
O	-1.0131	0.23263	-0.460766
H	-1.65325	-0.834067	1.24156
H	1.04255	-1.04297	1.79403
H	2.28869	0.278046	-0.278959
H	0.228863	1.16114	-1.88938
C	6.60132	-1.02034	0.304416
C	7.0567	-0.123522	-0.638707
N	6.23173	0.947478	-0.732977
C	5.26822	0.715955	0.148313
N	5.44594	-0.457959	0.799411
H	7.00423	-1.98672	0.646932
H	7.96574	-0.230069	-1.25283
H	4.40855	1.37292	0.357099
H	4.82241	-0.862616	1.54016
