18
  This energy is -1.1515 and Call times are: 72732
C	-0.588325	0.937099	0.249239
C	-0.393155	-0.0649885	1.15373
C	0.381928	-1.05624	0.477878
C	0.591977	-0.572394	-0.779954
O	0.00644815	0.643946	-0.937065
H	-1.12484	1.89705	0.326049
H	-0.75836	-0.102388	2.19263
H	0.737156	-2.01501	0.888582
H	1.13391	-0.991681	-1.64353
C	4.01745	0.184566	-0.859441
C	4.33383	1.04505	0.170424
N	5.27908	0.510306	0.981014
C	5.54809	-0.677396	0.456013
N	4.81318	-0.920518	-0.655016
H	3.30609	0.277318	-1.69544
H	3.89698	2.04214	0.3431
H	6.27451	-1.40903	0.844923
H	4.84373	-1.78595	-1.24777
