18
  This energy is -0.7701 and Call times are: 95447
C	0.888924	0.230042	0.665804
C	-0.25178	0.977538	0.686232
C	-1.12515	0.384484	-0.275865
C	-0.44105	-0.673067	-0.799285
O	0.790797	-0.782236	-0.235681
H	1.82851	0.314246	1.2362
H	-0.457553	1.85821	1.31566
H	-2.14271	0.713911	-0.540701
H	-0.716674	-1.41404	-1.56756
C	5.84577	0.374385	-0.909896
C	5.16591	1.15642	-0.000310298
N	4.52551	0.392967	0.918133
C	4.80702	-0.857945	0.579611
N	5.59998	-0.922049	-0.51615
H	6.46639	0.639822	-1.78048
H	5.126	2.25786	0.00969666
H	4.4585	-1.76477	1.09965
H	5.95913	-1.79334	-0.977816
