18
  This energy is -1.5789 and Call times are: 148805
C	-0.00039533	-0.708049	0.88604
C	0.496947	-1.06394	-0.333128
C	0.322444	0.0768342	-1.17474
C	-0.266129	1.02912	-0.395575
O	-0.470592	0.566912	0.865998
H	-0.0765494	-1.26369	1.8351
H	0.942041	-2.0326	-0.611827
H	0.605339	0.168505	-2.23571
H	-0.585086	2.06075	-0.617537
C	4.91194	-0.586558	0.882585
C	5.27505	-0.610452	-0.44735
N	4.46658	0.185099	-1.18896
C	3.6052	0.70057	-0.322395
N	3.83208	0.265975	0.939841
H	5.33157	-1.09881	1.76295
H	6.10589	-1.18747	-0.885062
H	2.78838	1.40147	-0.558596
H	3.28888	0.528451	1.7985
