18
  This energy is -1.3341 and Call times are: 5986
C	0.613902	-0.709428	-0.637367
C	0.302482	-0.979298	0.662849
C	-0.468362	0.133171	1.11928
C	-0.559946	0.984648	0.0576923
O	0.0952675	0.485947	-1.02351
H	1.19017	-1.27937	-1.38458
H	0.587042	-1.87219	1.24239
H	-0.900295	0.274315	2.12308
H	-1.05623	1.9626	-0.0544404
C	5.35888	-0.0900038	-0.676412
C	4.29184	0.763119	-0.862805
N	3.36012	0.599503	0.107578
C	3.8473	-0.351506	0.892984
N	5.05037	-0.799769	0.462554
H	6.28504	-0.237347	-1.25439
H	4.17757	1.49377	-1.68008
H	3.36427	-0.757339	1.79643
H	5.63646	-1.54585	0.91102
