18
  This energy is -0.8485 and Call times are: 159115
C	0.488132	0.944019	-0.396178
C	1.16029	0.0431531	0.376489
C	0.2236	-0.993658	0.672707
C	-0.938272	-0.634847	0.0549053
O	-0.794798	0.545894	-0.602574
H	0.806133	1.8945	-0.855219
H	2.21038	0.102768	0.704904
H	0.403039	-1.89775	1.27645
H	-1.92359	-1.12699	0.0080225
C	6.46191	0.707541	0.819216
C	7.12527	0.123172	-0.238903
N	6.28386	-0.632005	-0.986061
C	5.103	-0.516567	-0.393711
N	5.1582	0.280756	0.699368
H	6.8136	1.37465	1.62223
H	8.19593	0.232927	-0.476597
H	4.16484	-0.994611	-0.718607
H	4.35994	0.526925	1.33454
