18
  This energy is -0.8791 and Call times are: 196050
C	-0.483567	0.400983	-0.94434
C	-1.19769	0.14129	0.188342
C	-0.252771	-0.342391	1.14401
C	0.955358	-0.33557	0.510964
O	0.833027	0.115497	-0.765197
H	-0.791239	0.785966	-1.93043
H	-2.28117	0.276743	0.336064
H	-0.457958	-0.656516	2.18002
H	1.96244	-0.623582	0.854593
C	4.95717	-0.918916	0.357001
C	6.21254	-0.958322	-0.211872
N	6.6571	0.288665	-0.501539
C	5.68122	1.09859	-0.113842
N	4.63417	0.41862	0.410497
H	4.29294	-1.72127	0.715585
H	6.80548	-1.86418	-0.418489
H	5.68146	2.19781	-0.190855
H	3.74562	0.831632	0.786201
