18
  This energy is -0.9849 and Call times are: 181683
C	-0.0240566	-0.516145	1.00966
C	-0.60645	0.69862	0.796264
C	-0.366939	1.01127	-0.576689
C	0.340672	-0.0400335	-1.08108
O	0.559036	-0.982026	-0.126107
H	0.0440002	-1.14591	1.91189
H	-1.15017	1.3129	1.53188
H	-0.688032	1.91616	-1.11722
H	0.741984	-0.234777	-2.08919
C	6.10081	0.400836	0.112412
C	5.62745	-0.456642	-0.858056
N	4.30721	-0.708934	-0.6854
C	3.96283	-0.010627	0.388096
N	5.00923	0.675517	0.905629
H	7.10375	0.821	0.288814
H	6.21491	-0.897783	-1.67973
H	2.95793	0.0339796	0.838013
H	4.99224	1.29812	1.75022
