18
  This energy is -1.1583 and Call times are: 196339
C	-0.992025	0.506035	0.214982
C	-0.00692896	1.10849	-0.510973
C	1.06908	0.170657	-0.563759
C	0.646537	-0.922103	0.134597
O	-0.610016	-0.734639	0.617239
H	-1.99669	0.850082	0.510824
H	-0.0351644	2.11257	-0.963864
H	2.04099	0.303035	-1.06572
H	1.13903	-1.88296	0.356992
C	5.91372	0.704401	-0.476207
C	5.30332	-0.377527	-1.07453
N	4.41426	-0.962581	-0.235612
C	4.47288	-0.246329	0.878915
N	5.36239	0.770201	0.78391
H	6.67599	1.40867	-0.84564
H	5.48851	-0.746462	-2.09651
H	3.88614	-0.422564	1.79484
H	5.5889	1.47432	1.52834
