18
  This energy is -0.7457 and Call times are: 169577
C	-0.554053	-0.894555	0.423316
C	-1.00843	-0.198885	-0.65833
C	-0.053855	0.839216	-0.884706
C	0.899584	0.686274	0.0785884
O	0.610092	-0.367755	0.886195
H	-0.962036	-1.77115	0.952833
H	-1.92397	-0.396887	-1.23858
H	-0.0821161	1.60612	-1.67537
H	1.8198	1.2541	0.293126
C	5.63433	-0.228729	1.14251
C	6.69957	-0.629725	0.364291
N	6.56682	-0.188897	-0.910291
C	5.42358	0.483021	-0.92274
N	4.82342	0.487987	0.291086
H	5.40365	-0.397058	2.20646
H	7.56153	-1.22922	0.699657
H	4.97922	0.991029	-1.79377
H	3.91369	0.94982	0.536791
