18
  This energy is -2.9399 and Call times are: 58104
C	0.232086	-0.94289	0.586085
C	0.171787	-0.926029	-0.776433
C	-0.139849	0.420342	-1.13738
C	-0.242475	1.10738	0.0364243
O	-0.0183425	0.290426	1.09914
H	0.441191	-1.75764	1.29862
H	0.330806	-1.77639	-1.45885
H	-0.270493	0.821423	-2.1553
H	-0.46698	2.16597	0.246733
C	4.13746	-1.14646	0.0424353
C	5.37923	-0.574708	0.222029
N	5.31769	0.77402	0.105167
C	4.04259	1.03798	-0.145971
N	3.29028	-0.0868898	-0.193743
H	3.8077	-2.1973	0.0652241
H	6.31846	-1.11121	0.433834
H	3.60584	2.03735	-0.303254
H	2.25825	-0.141479	-0.375976
