18
  This energy is -0.6917 and Call times are: 84791
C	-0.771259	-0.26313	-0.788875
C	0.181153	-1.14739	-0.374913
C	0.952045	-0.458739	0.610784
C	0.402663	0.785558	0.712153
O	-0.650818	0.922434	-0.135465
H	-1.58078	-0.354988	-1.53149
H	0.32628	-2.18093	-0.728232
H	1.81371	-0.852177	1.17366
H	0.665758	1.6519	1.34103
C	6.72974	-0.687332	0.219661
C	6.56712	0.167867	-0.849607
N	5.37296	0.805603	-0.788012
C	4.79695	0.347779	0.315271
N	5.57511	-0.554819	0.958214
H	7.55779	-1.35845	0.498002
H	7.29004	0.336151	-1.66441
H	3.80611	0.639889	0.698851
H	5.34308	-1.05784	1.8495
