18
  This energy is -0.9617 and Call times are: 195346
C	0.215474	0.932482	0.608646
C	-0.845716	0.117171	0.872309
C	-0.781203	-0.93321	-0.0934315
C	0.313715	-0.667048	-0.861992
O	0.934371	0.468667	-0.447325
H	0.562843	1.85998	1.09272
H	-1.59842	0.242826	1.66713
H	-1.47394	-1.78388	-0.196258
H	0.750848	-1.20105	-1.72165
C	5.69585	-0.836032	0.229715
C	5.33657	0.212272	1.05016
N	4.38777	0.985282	0.468144
C	4.1593	0.418687	-0.708885
N	4.92341	-0.682786	-0.899905
H	6.42231	-1.65299	0.365255
H	5.74497	0.424695	2.05162
H	3.44302	0.769147	-1.46937
H	4.92677	-1.30206	-1.74711
