18
  This energy is -0.9151 and Call times are: 37870
C	0.32908	0.276216	-1.04967
C	-0.88553	-0.28716	-0.789471
C	-0.929946	-0.484999	0.624391
C	0.261442	-0.0250554	1.10337
O	1.04266	0.443466	0.0948088
H	0.797693	0.600021	-1.9935
H	-1.67137	-0.538229	-1.51989
H	-1.75707	-0.919959	1.20814
H	0.668254	0.0234757	2.12679
C	5.76004	0.208811	0.873973
C	5.54847	-0.992212	0.230601
N	4.59849	-0.872116	-0.728374
C	4.22216	0.398578	-0.680107
N	4.8933	1.09196	0.269826
H	6.44326	0.488211	1.69171
H	6.06426	-1.94324	0.441185
H	3.45928	0.873805	-1.31761
H	4.77579	2.10862	0.501894
