18
  This energy is -0.9808 and Call times are: 181043
C	-0.525675	0.33528	0.947446
C	0.543028	-0.512016	0.965841
C	0.920764	-0.694623	-0.399475
C	0.0495457	0.0572041	-1.13167
O	-0.840685	0.692996	-0.325275
H	-1.14139	0.753242	1.76075
H	1.01773	-0.963171	1.85196
H	1.74657	-1.31551	-0.782405
H	-0.0405847	0.221086	-2.21807
C	6.08129	-0.679525	-0.559402
C	4.78401	-1.00984	-0.22906
N	4.16753	0.0127143	0.411911
C	5.07888	0.973736	0.478955
N	6.24968	0.605038	-0.0927878
H	6.87023	-1.24869	-1.07627
H	4.28183	-1.96766	-0.441734
H	4.94168	1.96706	0.935811
H	7.1199	1.18687	-0.166565
