18
  This energy is -0.9517 and Call times are: 140470
C	0.343346	-0.274439	-1.04556
C	1.2163	-0.101795	-0.0118687
C	0.41658	0.231038	1.12382
C	-0.874474	0.232401	0.683876
O	-0.937795	-0.0742269	-0.638615
H	0.506023	-0.537152	-2.10375
H	2.31334	-0.199064	-0.0457178
H	0.770283	0.443134	2.14558
H	-1.82453	0.432792	1.20588
C	5.58097	-1.03257	0.48985
C	5.11654	-0.823642	-0.791478
N	4.89414	0.493143	-1.02196
C	5.21936	1.09881	0.112067
N	5.63946	0.221979	1.05454
H	5.86452	-1.95447	1.02205
H	4.93795	-1.59945	-1.55377
H	5.16876	2.18227	0.306448
H	5.95049	0.453682	2.02965
