18
  This energy is -1.3255 and Call times are: 112013
C	-0.989775	0.418076	0.363261
C	-0.383499	0.861178	-0.775363
C	0.822635	0.105591	-0.89555
C	0.846937	-0.732538	0.180239
O	-0.252204	-0.555235	0.959638
H	-1.93476	0.71065	0.849733
H	-0.74897	1.6418	-1.46177
H	1.57826	0.183901	-1.69367
H	1.58017	-1.49129	0.499483
C	5.38678	-0.51131	-0.882807
C	5.23271	0.841551	-0.665606
N	4.49621	1.077	0.447334
C	4.19451	-0.125226	0.918777
N	4.70852	-1.11585	0.151936
H	5.9135	-1.06806	-1.67409
H	5.63979	1.65196	-1.292
H	3.59999	-0.33735	1.82198
H	4.60929	-2.14781	0.314627
