18
  This energy is -1.6112 and Call times are: 192854
C	-0.15771	0.279422	1.08787
C	0.671245	-0.734535	0.706948
C	0.605635	-0.778364	-0.719198
C	-0.257622	0.21268	-1.08388
O	-0.733337	0.868888	0.00703483
H	-0.419921	0.674674	2.08299
H	1.26896	-1.38624	1.3643
H	1.14237	-1.4708	-1.38743
H	-0.611124	0.546949	-2.0731
C	4.98061	-0.0396993	1.16228
C	5.67778	0.713804	0.241782
N	5.20281	0.51586	-1.0119
C	4.21473	-0.357122	-0.869699
N	4.04133	-0.722834	0.422499
H	5.08299	-0.134954	2.25498
H	6.515	1.39673	0.459792
H	3.58558	-0.762147	-1.67862
H	3.3274	-1.39811	0.790679
