18
  This energy is -1.5679 and Call times are: 71043
C	-0.131802	1.0582	0.386305
C	-0.764127	0.605653	-0.73429
C	-0.352511	-0.752737	-0.893875
C	0.495011	-1.01036	0.143289
O	0.641307	0.084473	0.935087
H	-0.148942	2.0387	0.88988
H	-1.45146	1.17162	-1.3834
H	-0.657253	-1.44938	-1.69132
H	1.0506	-1.91993	0.424818
C	3.373	0.797893	-0.468975
C	3.78371	-0.386245	-1.04368
N	4.62292	-1.06275	-0.222344
C	4.73241	-0.301197	0.85778
N	3.99766	0.831821	0.757743
H	2.70278	1.59232	-0.833964
H	3.48954	-0.764575	-2.03624
H	5.33729	-0.525624	1.75108
H	3.91886	1.5914	1.47752
