18
  This energy is -0.8296 and Call times are: 52910
C	0.895108	0.560252	0.413884
C	-0.334437	0.611458	1.00208
C	-1.1854	-0.210088	0.201429
C	-0.400749	-0.690806	-0.80535
O	0.872873	-0.230515	-0.691197
H	1.85356	1.03503	0.68073
H	-0.614107	1.17157	1.90881
H	-2.25604	-0.413599	0.36396
H	-0.626331	-1.35913	-1.65253
C	4.85685	1.06937	0.351837
C	4.62042	-0.128169	0.993049
N	5.16002	-1.16472	0.306823
C	5.72902	-0.612338	-0.756062
N	5.57384	0.732715	-0.774562
H	4.57501	2.10285	0.608809
H	4.07017	-0.262822	1.93853
H	6.27235	-1.14651	-1.55211
H	5.93155	1.39326	-1.50735
