18
  This energy is -0.5645 and Call times are: 105627
C	-0.768362	-0.631233	-0.545495
C	-1.10602	0.215185	0.469363
C	0.114834	0.822561	0.89448
C	1.09077	0.293685	0.101877
O	0.569258	-0.595997	-0.783282
H	-1.37874	-1.30399	-1.17007
H	-2.11372	0.393903	0.877647
H	0.24191	1.56583	1.69791
H	2.17909	0.466035	0.0688077
C	5.32996	0.0609326	0.663624
C	6.61347	0.393777	1.04171
N	7.48799	0.200978	0.0245781
C	6.74981	-0.24976	-0.980683
N	5.44186	-0.351743	-0.645331
H	4.37665	0.0876404	1.21501
H	6.92417	0.769583	2.03018
H	7.1162	-0.520522	-1.98402
H	4.66167	-0.682214	-1.26449
