18
  This energy is -0.7813 and Call times are: 122439
C	0.865277	-0.538228	-0.498003
C	1.04732	0.543057	0.313204
C	-0.257753	0.934369	0.741894
C	-1.1221	0.0576645	0.15481
O	-0.453464	-0.848515	-0.605963
H	1.58285	-1.16667	-1.05063
H	2.0046	1.01751	0.582673
H	-0.513534	1.77254	1.40983
H	-2.22041	-0.0263085	0.198665
C	6.10349	-0.229085	-1.08158
C	6.46609	-0.862441	0.0882635
N	5.80341	-0.343657	1.15045
C	5.03264	0.60792	0.641491
N	5.17743	0.716098	-0.700494
H	6.42809	-0.379083	-2.12353
H	7.19398	-1.68444	0.184901
H	4.34308	1.25557	1.20654
H	4.67917	1.39133	-1.33061
