18
  This energy is -0.9975 and Call times are: 46105
C	-0.428669	0.0446768	1.04912
C	0.449921	-0.923199	0.659669
C	0.755452	-0.646573	-0.707901
C	0.0365964	0.465924	-1.03343
O	-0.692269	0.901551	0.0277003
H	-0.931844	0.230701	2.01217
H	0.843385	-1.74909	1.27382
H	1.4329	-1.21535	-1.3649
H	-0.0414621	1.03685	-1.97322
C	5.70936	-0.721435	-0.777928
C	4.45121	-0.851658	-0.229076
N	4.1868	0.160449	0.632454
C	5.27677	0.915684	0.618127
N	6.22374	0.426063	-0.216807
H	6.25681	-1.34339	-1.50389
H	3.72952	-1.65777	-0.43929
H	5.43442	1.83817	1.19984
H	7.16957	0.84144	-0.401514
