18
  This energy is -0.7493 and Call times are: 15582
C	-0.97605	0.1747	0.550643
C	-0.565525	-1.06853	0.168256
C	0.689831	-0.881459	-0.48688
C	0.935617	0.459575	-0.447004
O	-0.0713907	1.11992	0.182992
H	-1.87937	0.514698	1.08324
H	-1.09373	-2.02171	0.331187
H	1.32847	-1.66076	-0.932894
H	1.779	1.05987	-0.825962
C	6.40166	-0.381333	-0.864494
C	6.56015	-0.600815	0.487487
N	5.56517	-0.0156073	1.19746
C	4.79236	0.564715	0.289372
N	5.25438	0.373006	-0.968949
H	7.00401	-0.697995	-1.73077
H	7.37461	-1.17094	0.963368
H	3.87608	1.14259	0.491188
H	4.82117	0.730828	-1.85526
