18
  This energy is -0.8975 and Call times are: 101634
C	-0.262757	1.09486	-0.136497
C	1.01209	0.674228	0.104736
C	0.940184	-0.747974	0.215586
C	-0.372263	-1.07088	0.0323062
O	-1.12123	0.0423539	-0.183967
H	-0.683424	2.10207	-0.290846
H	1.91277	1.30243	0.195515
H	1.77402	-1.4417	0.4094
H	-0.892987	-2.04252	0.032195
C	6.33298	-0.584164	-0.925406
C	7.04922	-0.0487569	0.124109
N	6.22903	0.557085	1.01672
C	5.0086	0.398131	0.522834
N	5.01828	-0.283735	-0.647019
H	6.65505	-1.13919	-1.82081
H	8.1431	-0.0887593	0.253251
H	4.07263	0.761097	0.977183
H	4.18335	-0.535564	-1.23075
