18
  This energy is -0.837 and Call times are: 209405
C	-0.987763	0.53899	0.142181
C	-0.901208	-0.679199	-0.46519
C	0.484988	-1.02341	-0.455307
C	1.12315	0.0148195	0.15723
O	0.239044	0.977842	0.52866
H	-1.85179	1.18896	0.357238
H	-1.73033	-1.27557	-0.878693
H	0.94432	-1.93973	-0.859625
H	2.18787	0.185851	0.386038
C	5.11516	-0.344895	0.961305
C	6.11086	-1.03747	0.305506
N	6.56413	-0.343439	-0.766588
C	5.85233	0.775437	-0.775851
N	4.96496	0.822081	0.245907
H	4.52262	-0.591659	1.85659
H	6.51031	-2.0255	0.586719
H	5.94028	1.59413	-1.50813
H	4.29095	1.59916	0.453567
