18
  This energy is -1.2392 and Call times are: 122183
C	-0.0097783	-0.108548	-1.12895
C	-1.12512	-0.298581	-0.367196
C	-0.718487	-0.0760075	0.983813
C	0.609451	0.23039	0.92838
O	1.05882	0.215134	-0.354135
H	0.15182	-0.173079	-2.21751
H	-2.13309	-0.568425	-0.721156
H	-1.34849	-0.138971	1.88561
H	1.33684	0.475549	1.71961
C	4.40809	-0.28506	1.14183
C	3.95528	-1.06355	0.0977704
N	4.0954	-0.421216	-1.08725
C	4.6331	0.751307	-0.779522
N	4.8409	0.881635	0.552177
H	4.45151	-0.472481	2.2265
H	3.52998	-2.0772	0.17832
H	4.89495	1.55145	-1.49047
H	5.25317	1.71303	1.04214
