18
  This energy is -1.0334 and Call times are: 163388
C	-1.0646	-0.388516	-0.0457188
C	-0.655053	0.510984	0.894253
C	0.727643	0.751566	0.628945
C	1.04098	-0.0221549	-0.449733
O	-0.04169	-0.725107	-0.874803
H	-2.04404	-0.860291	-0.228387
H	-1.26541	0.960033	1.6942
H	1.40249	1.42423	1.18229
H	1.98543	-0.159184	-1.00155
C	4.56225	-0.42702	0.568653
C	5.59959	0.300256	1.11284
N	6.51284	0.63112	0.167843
C	6.04383	0.111082	-0.95831
N	4.87003	-0.536951	-0.769021
H	3.657	-0.859691	1.02347
H	5.70542	0.59217	2.1704
H	6.51993	0.175141	-1.95001
H	4.30253	-1.02932	-1.50167
