18
  This energy is -0.9636 and Call times are: 23130
C	-0.173974	0.533535	0.985634
C	-0.976775	-0.480409	0.552273
C	-0.444666	-0.888695	-0.70879
C	0.636327	-0.0882058	-0.934724
O	0.816362	0.786303	0.0898904
H	-0.201452	1.14767	1.90069
H	-1.85551	-0.898852	1.06882
H	-0.828813	-1.68664	-1.36439
H	1.34923	-0.0421582	-1.77431
C	6.3009	-0.397892	0.121629
C	5.62742	-0.17513	-1.06072
N	4.37378	0.28485	-0.829789
C	4.26994	0.34721	0.490798
N	5.40553	-0.0540254	1.10969
H	7.31997	-0.764553	0.323109
H	6.02362	-0.338068	-2.07626
H	3.38485	0.679476	1.05688
H	5.57217	-0.0953002	2.14496
