18
  This energy is -1.2979 and Call times are: 73364
C	0.267652	-0.596623	0.926717
C	-0.864207	0.160284	0.846961
C	-0.849652	0.74953	-0.454075
C	0.289816	0.300687	-1.05451
O	0.984303	-0.522524	-0.225642
H	0.670739	-1.22592	1.73712
H	-1.63231	0.290598	1.62614
H	-1.60423	1.42754	-0.884195
H	0.713155	0.491269	-2.05437
C	5.04125	0.371051	1.11612
C	6.03659	0.485254	0.168802
N	5.64932	-0.0510435	-1.01396
C	4.4184	-0.496258	-0.801202
N	4.00643	-0.265467	0.467894
H	4.99755	0.687146	2.17049
H	7.02722	0.94501	0.317558
H	3.77372	-0.999012	-1.54002
H	3.076	-0.522449	0.879616
