18
  This energy is -1.2456 and Call times are: 131568
C	-1.03368	0.074828	0.460779
C	-0.20379	-0.98171	0.696134
C	0.986594	-0.717118	-0.0475689
C	0.779052	0.477751	-0.671738
O	-0.449579	0.975671	-0.372484
H	-2.05056	0.30034	0.821804
H	-0.409276	-1.85934	1.32988
H	1.88756	-1.34882	-0.105093
H	1.41847	1.07142	-1.3455
C	5.75466	-0.728606	0.533592
C	5.10267	0.346764	1.09895
N	4.30677	0.966506	0.193973
C	4.46442	0.278224	-0.928543
N	5.32762	-0.753759	-0.775298
H	6.46849	-1.45357	0.955973
H	5.19228	0.68656	2.14363
H	3.97174	0.486722	-1.89189
H	5.61653	-1.44193	-1.51301
