18
  This energy is -2.0249 and Call times are: 80957
C	-0.0650529	-0.464593	1.03263
C	0.130552	-1.21006	-0.0927112
C	0.154996	-0.281323	-1.17759
C	-0.0278276	0.949697	-0.619436
O	-0.163996	0.856532	0.72956
H	-0.150905	-0.751144	2.09365
H	0.246038	-2.3042	-0.152819
H	0.293204	-0.512209	-2.24609
H	-0.0796672	1.95539	-1.06792
C	4.86101	-1.13301	0.312517
C	5.9055	-0.235292	0.246976
N	5.4753	0.986685	-0.150793
C	4.1689	0.847579	-0.33133
N	3.75004	-0.412251	-0.06492
H	4.83069	-2.19821	0.591723
H	6.96179	-0.447427	0.479573
H	3.47164	1.63589	-0.657867
H	2.7664	-0.771525	-0.132928
