18
  This energy is -1.5966 and Call times are: 81974
C	0.217947	-0.685485	-0.876932
C	-0.831506	-0.89305	-0.0308001
C	-0.774671	0.163148	0.929062
C	0.304495	0.922901	0.584754
O	0.922459	0.419197	-0.515889
H	0.565658	-1.2443	-1.76128
H	-1.57143	-1.70816	-0.0778603
H	-1.46176	0.329768	1.77419
H	0.731286	1.83368	1.03596
C	3.76667	-0.844795	-0.785473
C	4.31717	0.393316	-1.04076
N	4.44691	1.1148	0.099032
C	3.97868	0.327277	1.05777
N	3.55639	-0.865379	0.575243
H	3.51796	-1.68467	-1.45353
H	4.62305	0.778938	-2.02696
H	3.92195	0.574264	2.13016
H	3.14684	-1.65526	1.13167
