18
  This energy is -1.7358 and Call times are: 184986
C	-0.792375	0.811229	0.0212159
C	0.104773	0.692996	-0.999333
C	0.925404	-0.428861	-0.670518
C	0.457289	-0.897144	0.521938
O	-0.591651	-0.151698	0.959028
H	-1.61167	1.52802	0.195061
H	0.18102	1.33171	-1.89394
H	1.76442	-0.832903	-1.25949
H	0.779826	-1.7413	1.1533
C	4.3114	0.839545	-0.241607
C	5.68399	0.947444	-0.315895
N	6.28518	-0.215809	0.0332859
C	5.28934	-1.04221	0.323095
N	4.07946	-0.452998	0.172784
H	3.51001	1.56682	-0.447436
H	6.25128	1.8438	-0.615191
H	5.38997	-2.08958	0.650414
H	3.14311	-0.896322	0.340047
