18
  This energy is -0.7208 and Call times are: 148163
C	0.976431	0.255889	0.517209
C	0.712914	-0.990339	0.0295113
C	-0.594737	-0.918654	-0.540602
C	-1.01487	0.365051	-0.350966
O	-0.0678714	1.09637	0.293529
H	1.85767	0.666277	1.03706
H	1.37314	-1.87168	0.0674302
H	-1.14996	-1.73337	-1.0326
H	-1.9531	0.875182	-0.62437
C	5.55684	-1.02414	-0.46741
C	4.8087	0.12923	-0.361729
N	5.51893	1.11978	0.230634
C	6.70317	0.582967	0.491447
N	6.77588	-0.708084	0.0895854
H	5.31606	-2.01443	-0.885615
H	3.76918	0.264385	-0.70229
H	7.55313	1.09066	0.975239
H	7.60325	-1.34664	0.184275
