18
  This energy is -0.6929 and Call times are: 190569
C	-0.462073	-1.00711	0.242098
C	0.884223	-0.792278	0.283433
C	1.07302	0.576515	-0.0783381
C	-0.174563	1.07729	-0.30881
O	-1.12409	0.123917	-0.11779
H	-1.06532	-1.90736	0.444334
H	1.66594	-1.52427	0.542674
H	2.03023	1.11681	-0.155362
H	-0.515107	2.08159	-0.609943
C	5.26689	0.83127	-0.00175216
C	6.34589	0.742913	0.852115
N	7.10475	-0.343788	0.569753
C	6.49882	-0.927372	-0.455385
N	5.38589	-0.257033	-0.83699
H	4.45002	1.56704	-0.0717946
H	6.59042	1.44381	1.66685
H	6.82747	-1.84745	-0.964965
H	4.73724	-0.516841	-1.61995
