18
  This energy is -1.1543 and Call times are: 119834
C	-0.062335	0.433703	-1.04614
C	0.246874	1.19462	0.0427884
C	0.227431	0.304745	1.15987
C	-0.0919426	-0.921402	0.654955
O	-0.272402	-0.861114	-0.690709
H	-0.163164	0.691291	-2.11326
H	0.466608	2.27424	0.0578816
H	0.429092	0.557238	2.21328
H	-0.219824	-1.90198	1.14215
C	4.44893	-0.495336	-0.967609
C	3.83652	-0.372855	0.261658
N	4.64639	0.251403	1.151
C	5.75699	0.51519	0.476021
N	5.68734	0.0846503	-0.80592
H	4.10265	-0.939368	-1.91443
H	2.82481	-0.723736	0.522789
H	6.65194	1.0216	0.872065
H	6.43439	0.175374	-1.53732
