18
  This energy is -0.7883 and Call times are: 75127
C	-1.02959	-0.422436	0.218855
C	-0.819649	0.90429	-0.017995
C	0.5831	1.04313	-0.248506
C	1.10653	-0.211004	-0.13217
O	0.135855	-1.11844	0.153056
H	-1.94845	-0.988555	0.443475
H	-1.57665	1.70486	-0.0292519
H	1.12994	1.97276	-0.474021
H	2.13946	-0.583936	-0.228282
C	5.8925	-1.0834	0.41022
C	7.09353	-0.590309	-0.0540566
N	6.97166	0.699979	-0.450058
C	5.69988	1.00618	-0.232279
N	5.00749	-0.0357931	0.285873
H	5.61426	-2.07266	0.807063
H	8.0458	-1.14244	-0.110386
H	5.22311	1.97887	-0.43426
H	3.9903	-0.04405	0.543754
