18
  This energy is -1.2515 and Call times are: 187290
C	0.295836	1.09093	0.093576
C	-0.936767	0.634536	0.457952
C	-0.927171	-0.769435	0.19548
C	0.310448	-1.04705	-0.306119
O	1.0705	0.077475	-0.375279
H	0.738557	2.1002	0.118635
H	-1.76924	1.2271	0.870207
H	-1.75072	-1.48185	0.363768
H	0.766521	-1.99127	-0.646264
C	4.40072	0.944062	-0.494531
C	4.04368	0.347344	0.696096
N	4.83312	-0.721297	0.963109
C	5.67671	-0.787284	-0.0579872
N	5.45673	0.195073	-0.963623
H	3.99171	1.81949	-1.02356
H	3.2306	0.668755	1.36724
H	6.47506	-1.53478	-0.192541
H	5.98918	0.35558	-1.85357
