18
  This energy is -1.0792 and Call times are: 185786
C	-0.423218	0.748825	-0.739289
C	-1.0871	0.38854	0.39642
C	-0.246418	-0.558612	1.05694
C	0.856971	-0.693505	0.266554
O	0.765863	0.0976755	-0.834693
H	-0.686567	1.44876	-1.54922
H	-2.07018	0.753174	0.735067
H	-0.4481	-1.07435	2.00953
H	1.76334	-1.31143	0.375671
C	4.72356	-0.928801	0.718733
C	5.28041	0.298671	1.0092
N	5.19738	1.1365	-0.0527124
C	4.59131	0.431478	-0.998363
N	4.28529	-0.820205	-0.582157
H	4.61187	-1.84146	1.32546
H	5.7406	0.594751	1.96597
H	4.34713	0.783171	-2.0137
H	3.80556	-1.56587	-1.14349
