18
  This energy is -0.841 and Call times are: 141562
C	0.13999	-0.572451	0.969073
C	1.06758	-0.590939	-0.0307281
C	0.540286	0.236586	-1.06865
C	-0.662983	0.687712	-0.611479
O	-0.923431	0.203512	0.631393
H	0.119174	-1.06273	1.95621
H	2.0269	-1.13294	-0.0367309
H	1.00948	0.463761	-2.03939
H	-1.41748	1.34886	-1.0685
C	5.75837	1.11096	0.386179
C	4.77	0.434916	-0.297369
N	5.15546	-0.831369	-0.587977
C	6.37831	-0.940482	-0.0866197
N	6.78689	0.203887	0.510938
H	5.80118	2.13905	0.77954
H	3.78567	0.838165	-0.586061
H	7.01926	-1.83581	-0.129074
H	7.71108	0.368753	0.979924
