18
  This energy is -1.2658 and Call times are: 26328
C	0.00358283	-1.05119	-0.425903
C	1.1093	-0.25275	-0.442109
C	0.714938	0.97382	0.174431
C	-0.596954	0.816644	0.51297
O	-1.0477	-0.414125	0.153733
H	-0.161884	-2.07836	-0.790293
H	2.10295	-0.502475	-0.847555
H	1.34203	1.86418	0.342055
H	-1.31114	1.49612	1.00644
C	4.80544	1.15743	0.0872178
C	5.148	0.296637	1.10841
N	5.29501	-0.97044	0.650797
C	5.04461	-0.895994	-0.64935
N	4.74437	0.365926	-1.03794
H	4.60742	2.24107	0.0817401
H	5.29171	0.567149	2.1672
H	5.06709	-1.73501	-1.36334
H	4.50976	0.681295	-2.01096
