18
  This energy is -0.2872 and Call times are: 206956
C	1.12128	0.0924602	-0.143462
C	0.549602	-0.0213625	1.08966
C	-0.857318	-0.113903	0.861348
C	-1.02119	-0.0484621	-0.491145
O	0.176727	0.0776855	-1.1205
H	2.17427	0.189454	-0.455012
H	1.06677	-0.0384423	2.06247
H	-1.64787	-0.216999	1.62193
H	-1.92579	-0.08023	-1.12038
C	4.91898	-0.170602	0.432879
C	5.64671	-1.04635	-0.344696
N	6.85556	-0.525269	-0.666656
C	6.87769	0.669202	-0.091006
N	5.73303	0.929724	0.583876
H	3.91298	-0.249887	0.874722
H	5.32116	-2.04485	-0.679165
H	7.707	1.39364	-0.131785
H	5.50845	1.80344	1.12001
