18
  This energy is -1.398 and Call times are: 108517
C	0.945399	-0.275304	-0.562875
C	0.315116	0.921943	-0.735263
C	-0.818924	0.895345	0.132703
C	-0.781525	-0.315807	0.75887
O	0.289347	-1.0437	0.346063
H	1.85582	-0.694949	-1.02144
H	0.618351	1.74159	-1.40632
H	-1.56977	1.69027	0.268412
H	-1.44901	-0.772461	1.50799
C	4.41831	0.623745	0.957438
C	5.19312	-0.515827	0.910623
N	5.31299	-0.973363	-0.359339
C	4.61521	-0.120874	-1.09757
N	4.05632	0.860105	-0.349958
H	4.10923	1.26194	1.80047
H	5.66779	-1.01608	1.77044
H	4.48067	-0.16816	-2.19022
H	3.46073	1.6502	-0.699634
