18
  This energy is -1.1963 and Call times are: 91959
C	-0.633255	-0.0133961	-0.940855
C	0.729016	-0.0710758	-0.976408
C	1.15771	-0.0315588	0.385495
C	0.0195595	0.0467803	1.13306
O	-1.08358	0.0589449	0.339373
H	-1.38639	-0.0161427	-1.74586
H	1.36792	-0.135034	-1.87185
H	2.19507	-0.0587856	0.755935
H	-0.13709	0.0990176	2.22301
C	4.82517	-0.890443	0.749426
C	5.13786	0.413185	1.0718
N	5.26834	1.17412	-0.0419625
C	5.03748	0.345702	-1.05144
N	4.76552	-0.910782	-0.626153
H	4.64683	-1.77559	1.3805
H	5.27164	0.81832	2.08808
H	5.05477	0.606863	-2.12183
H	4.55023	-1.74207	-1.22936
