18
  This energy is -0.6886 and Call times are: 939
C	-0.236559	0.914265	-0.62814
C	-1.02555	0.51836	0.411633
C	-0.40854	-0.65353	0.946511
C	0.703026	-0.870298	0.186376
O	0.823626	0.0776308	-0.780008
H	-0.320053	1.76214	-1.3277
H	-1.94936	1.00294	0.766374
H	-0.75885	-1.25821	1.79842
H	1.47804	-1.65299	0.231041
C	4.66966	-0.465104	0.550674
C	5.20148	0.792439	0.742768
N	6.27333	0.997627	-0.0606856
C	6.40596	-0.128341	-0.748604
N	5.46292	-1.04144	-0.416156
H	3.81147	-0.973703	1.01798
H	4.83099	1.55537	1.4467
H	7.17628	-0.337436	-1.50828
H	5.35635	-2.00487	-0.818289
