18
  This energy is -1.4018 and Call times are: 122535
C	0.127849	-0.965016	-0.582064
C	0.0604369	0.252792	-1.19262
C	-0.0991968	1.20815	-0.142891
C	-0.115242	0.489814	1.01647
O	0.0222608	-0.839048	0.767008
H	0.248252	-1.9819	-0.990367
H	0.117407	0.457782	-2.27374
H	-0.190605	2.30114	-0.248303
H	-0.216954	0.802224	2.06875
C	3.62055	0.498951	0.4205
C	4.45438	-0.375673	1.0845
N	5.49148	-0.753989	0.298483
C	5.30175	-0.116486	-0.848783
N	4.18693	0.651769	-0.825313
H	2.69508	1.0065	0.735832
H	4.32625	-0.740509	2.11665
H	5.94859	-0.176452	-1.73886
H	3.82331	1.24988	-1.60718
