18
  This energy is -0.5479 and Call times are: 111501
C	-0.077711	0.559434	0.983563
C	-1.1768	0.169921	0.275984
C	-0.678453	-0.495314	-0.885581
C	0.681169	-0.453593	-0.785278
O	1.06551	0.186879	0.350104
H	0.022893	1.10069	1.93864
H	-2.23255	0.33454	0.545018
H	-1.271	-0.949028	-1.69621
H	1.47517	-0.837945	-1.44641
C	6.75821	-0.163897	-0.129558
C	6.13411	0.94022	0.411338
N	4.78706	0.792129	0.404941
C	4.57629	-0.399327	-0.137859
N	5.73339	-1.01546	-0.477093
H	7.82355	-0.396151	-0.286524
H	6.63166	1.84103	0.806091
H	3.59453	-0.869062	-0.310309
H	5.83121	-1.9616	-0.920392
