18
  This energy is -2.0373 and Call times are: 207084
C	-0.143557	-1.10395	-0.217
C	0.841394	-0.36602	-0.804968
C	0.700573	0.957521	-0.286773
C	-0.358	0.911551	0.572112
O	-0.885582	-0.339711	0.627009
H	-0.417357	-2.16735	-0.31429
H	1.59182	-0.71837	-1.53078
H	1.32011	1.83539	-0.530926
H	-0.827738	1.68973	1.19584
C	5.66227	-1.11808	-0.144644
C	6.70977	-0.481751	-0.776287
N	6.81397	0.807344	-0.371455
C	5.83483	0.970111	0.507991
N	5.11196	-0.161983	0.679503
H	5.28218	-2.14924	-0.220761
H	7.39222	-0.929699	-1.51687
H	5.60249	1.89757	1.05578
H	4.28908	-0.287482	1.31854
