18
  This energy is -1.0257 and Call times are: 205960
C	0.647862	0.685658	0.629722
C	0.897871	0.45415	-0.690988
C	-0.119307	-0.447738	-1.12924
C	-0.901106	-0.687744	-0.0376542
O	-0.447145	-0.00368238	1.04539
H	1.1678	1.31156	1.37347
H	1.71646	0.876147	-1.29591
H	-0.246177	-0.864039	-2.14151
H	-1.79647	-1.31673	0.0963116
C	6.19582	-0.723735	-0.242515
C	5.7728	0.350764	-0.995944
N	4.71102	0.964255	-0.41909
C	4.47623	0.272979	0.687993
N	5.34461	-0.754918	0.839453
H	7.01502	-1.44436	-0.394653
H	6.21471	0.69433	-1.94543
H	3.68112	0.476297	1.42331
H	5.36547	-1.44428	1.6304
