18
  This energy is -2.3721 and Call times are: 123936
C	0.423624	0.700287	0.785202
C	0.0925629	1.1233	-0.468525
C	-0.398468	-0.0299653	-1.15335
C	-0.324122	-1.05592	-0.257654
O	0.175687	-0.627924	0.931474
H	0.838988	1.23901	1.65267
H	0.184877	2.14497	-0.870736
H	-0.762563	-0.0802523	-2.1921
H	-0.591978	-2.12185	-0.343051
C	3.64341	-1.02754	-0.347531
C	4.60722	-0.835107	0.61952
N	4.89892	0.480429	0.763702
C	4.11904	1.10175	-0.110577
N	3.34322	0.23608	-0.805058
H	3.16584	-1.94371	-0.72976
H	5.09735	-1.62193	1.21579
H	4.07598	2.18921	-0.283234
H	2.64589	0.480856	-1.55009
