18
  This energy is -1.1049 and Call times are: 162844
C	-0.166394	-0.678286	-0.893668
C	0.975925	-0.71773	-0.149406
C	0.812463	0.268962	0.870317
C	-0.415316	0.824257	0.659176
O	-1.02711	0.257736	-0.414033
H	-0.483855	-1.25653	-1.7769
H	1.84634	-1.37565	-0.303072
H	1.53094	0.52817	1.66448
H	-0.960218	1.6189	1.19479
C	5.89296	0.839191	-0.447941
C	5.59881	-0.381959	-1.01663
N	4.76643	-1.10158	-0.225547
C	4.54505	-0.329792	0.829897
N	5.20206	0.851056	0.74315
H	6.52401	1.67279	-0.794974
H	5.97227	-0.756658	-1.98357
H	3.91017	-0.580382	1.69498
H	5.18785	1.62767	1.44879
