18
  This energy is -0.9055 and Call times are: 67726
C	0.0239184	1.04821	0.432526
C	-1.05621	0.561368	-0.243251
C	-0.7103	-0.77062	-0.625706
C	0.550676	-0.980149	-0.14988
O	1.01454	0.120177	0.49906
H	0.209174	2.02533	0.908107
H	-2.0017	1.08745	-0.451521
H	-1.33427	-1.48261	-1.18947
H	1.21723	-1.85636	-0.206448
C	4.94735	-0.495505	-1.03845
C	4.28632	-1.08024	0.0209219
N	4.17462	-0.219939	1.06204
C	4.7641	0.894262	0.650106
N	5.24625	0.778556	-0.60995
H	5.2172	-0.882945	-2.03375
H	3.888	-2.10746	0.0526849
H	4.87066	1.82463	1.23087
H	5.75149	1.51843	-1.15637
