18
  This energy is -1.0067 and Call times are: 104822
C	0.837424	-0.663609	-0.380455
C	1.05854	0.603229	0.0740814
C	-0.220337	1.10905	0.459734
C	-1.11007	0.106656	0.206821
O	-0.481399	-0.983393	-0.30658
H	1.52505	-1.42834	-0.777458
H	2.02525	1.12879	0.131985
H	-0.442339	2.10476	0.876099
H	-2.20188	0.0457225	0.346416
C	4.73519	0.7793	0.749491
C	5.07769	-0.528206	1.02202
N	5.58759	-1.13861	-0.0752115
C	5.56153	-0.213304	-1.02482
N	5.05618	0.960542	-0.577275
H	4.30027	1.56733	1.38462
H	4.966	-1.04205	1.99069
H	5.90038	-0.342046	-2.06541
H	4.93245	1.84097	-1.13476
