18
  This energy is -0.4646 and Call times are: 149468
C	0.997968	-0.0672006	-0.534738
C	-0.156277	0.264515	-1.18131
C	-1.18127	0.244128	-0.186783
C	-0.562903	-0.0982464	0.979739
O	0.76818	-0.292124	0.785724
H	2.03354	-0.175651	-0.896784
H	-0.274088	0.499943	-2.25126
H	-2.25181	0.460605	-0.332324
H	-0.953508	-0.235064	2.00148
C	5.37051	-0.270248	-0.669415
C	6.2095	-1.15315	-0.0230984
N	7.17779	-0.495887	0.66023
C	6.9404	0.789875	0.438675
N	5.86121	0.977945	-0.357296
H	4.48843	-0.436308	-1.30807
H	6.1335	-2.25263	-0.0376026
H	7.52567	1.63524	0.834974
H	5.47237	1.8991	-0.675956
