18
  This energy is -0.9083 and Call times are: 96645
C	-0.605359	0.40163	0.870996
C	-0.112584	-0.870003	0.848709
C	0.582169	-0.998399	-0.392641
C	0.452617	0.206107	-1.01934
O	-0.269691	1.07306	-0.261929
H	-1.20192	0.941428	1.62465
H	-0.226867	-1.64033	1.62822
H	1.11365	-1.88807	-0.766956
H	0.82274	0.567255	-1.99291
C	4.37864	-0.0250142	-0.584193
C	5.12035	1.09169	-0.261722
N	6.24444	0.752919	0.415161
C	6.20025	-0.568915	0.512241
N	5.09464	-1.08523	-0.0748148
H	3.42381	-0.136535	-1.12216
H	4.86454	2.13574	-0.505344
H	6.95135	-1.20875	1.00283
H	4.83276	-2.09987	-0.131201
