18
  This energy is -0.8508 and Call times are: 116987
C	0.356515	-0.0418009	1.0759
C	1.16022	0.375047	0.0557651
C	0.365991	0.288264	-1.1282
C	-0.852948	-0.173955	-0.727062
O	-0.876535	-0.380952	0.615922
H	0.541092	-0.14135	2.15815
H	2.20733	0.710039	0.129605
H	0.674861	0.542591	-2.15485
H	-1.77347	-0.394255	-1.29218
C	6.05517	-0.171004	-0.962601
C	5.27124	-1.10472	-0.318578
N	4.65292	-0.563771	0.759182
C	5.05175	0.700729	0.783679
N	5.8982	0.986762	-0.233818
H	6.69238	-0.245992	-1.85808
H	5.14071	-2.15902	-0.612275
H	4.75458	1.46037	1.52453
H	6.349	1.91385	-0.430138
