18
  This energy is -0.5526 and Call times are: 133921
C	0.711142	-0.782652	-0.410041
C	-0.63942	-0.860001	-0.584319
C	-1.18394	0.289717	0.0651159
C	-0.118057	0.968148	0.578923
O	1.04719	0.327525	0.298188
H	1.52958	-1.44502	-0.736674
H	-1.19634	-1.64766	-1.11679
H	-2.24699	0.570708	0.136295
H	-0.0572653	1.9055	1.15592
C	7.85437	0.688127	-0.0275605
C	6.60657	1.02274	0.454304
N	5.74119	-0.0127987	0.330636
C	6.44943	-0.986124	-0.225831
N	7.72957	-0.61281	-0.461353
H	8.79106	1.26449	-0.0903807
H	6.31522	1.9928	0.888982
H	6.07999	-1.99209	-0.482301
H	8.48341	-1.20211	-0.892302
