18
  This energy is -0.908 and Call times are: 69628
C	1.05251	0.399044	-0.139253
C	0.585557	-0.0231633	1.07074
C	-0.759594	-0.446856	0.844526
C	-0.995899	-0.24616	-0.483726
O	0.099953	0.269941	-1.09997
H	2.03029	0.807129	-0.443649
H	1.1334	-0.0350479	2.02668
H	-1.46206	-0.85256	1.59021
H	-1.88976	-0.427601	-1.10287
C	4.71789	-0.136358	0.634003
C	4.95892	-0.622996	-0.63337
N	6.19725	-0.27764	-1.06206
C	6.72245	0.420592	-0.0644361
N	5.86962	0.533814	0.981246
H	3.83765	-0.216844	1.29145
H	4.26148	-1.21711	-1.24612
H	7.72761	0.871792	-0.0471517
H	6.05116	1.03637	1.88443
