18
  This energy is -2.1658 and Call times are: 20470
C	-0.510483	-0.988753	0.219488
C	-0.176403	-0.104994	1.20322
C	0.43814	1.002	0.542146
C	0.425347	0.696984	-0.787206
O	-0.150321	-0.515167	-1.0024
H	-1.00113	-1.97516	0.258591
H	-0.345738	-0.220992	2.2858
H	0.840017	1.91494	1.01025
H	0.78978	1.25085	-1.66793
C	4.66992	0.208742	1.15613
C	5.63329	-0.374903	0.360884
N	5.21818	-0.460574	-0.926306
C	4.00191	0.0679135	-0.929587
N	3.62594	0.486293	0.302157
H	4.65391	0.438549	2.23338
H	6.62044	-0.735717	0.692838
H	3.34283	0.173292	-1.80636
H	2.71309	0.936355	0.557902
