18
  This energy is -0.8315 and Call times are: 98694
C	-0.201552	-0.727288	-0.846658
C	-1.11185	-0.483963	0.139511
C	-0.502346	0.473472	1.00666
C	0.726602	0.730701	0.473842
O	0.927063	0.00602559	-0.658268
H	-0.2364	-1.39085	-1.72628
H	-2.11218	-0.933588	0.245667
H	-0.93615	0.913774	1.91882
H	1.53982	1.39932	0.800775
C	7.04432	0.324323	-1.04043
C	7.30689	-0.843684	-0.356349
N	6.62274	-0.889698	0.812552
C	5.93834	0.245447	0.853475
N	6.15868	1.01181	-0.240934
H	7.41274	0.702332	-2.00733
H	7.97772	-1.65402	-0.685278
H	5.26092	0.56568	1.66143
H	5.73548	1.9508	-0.4421
