18
  This energy is -1.769 and Call times are: 8658
C	0.535297	0.00357818	-0.999922
C	-0.0612465	1.11767	-0.486781
C	-0.618989	0.720366	0.766691
C	-0.314037	-0.601437	0.908876
O	0.390673	-1.05562	-0.160757
H	1.08732	-0.163169	-1.93945
H	-0.104217	2.11882	-0.944985
H	-1.18038	1.35222	1.47358
H	-0.538053	-1.32099	1.71343
C	3.35065	-0.256655	0.947401
C	3.80896	0.988033	0.570768
N	4.52803	0.917619	-0.575742
C	4.51587	-0.365871	-0.909105
N	3.81886	-1.11502	-0.0222283
H	2.74467	-0.581499	1.8081
H	3.63365	1.93561	1.10576
H	5.00133	-0.811258	-1.79239
H	3.66453	-2.15213	-0.0650831
