18
  This energy is -1.1515 and Call times are: 191947
C	0.468339	0.200397	1.01336
C	-0.825337	0.526122	0.729317
C	-1.04165	0.124052	-0.624074
C	0.138937	-0.41188	-1.04759
O	1.07225	-0.373408	-0.060443
H	1.06896	0.323361	1.92954
H	-1.55417	1.00181	1.40505
H	-1.97154	0.226016	-1.20631
H	0.438581	-0.848358	-2.01452
C	4.21093	-0.808116	0.330783
C	4.66296	-0.568458	-0.9496
N	5.57173	0.436704	-0.966817
C	5.68306	0.819167	0.298075
N	4.88279	0.0990207	1.11939
H	3.48298	-1.53573	0.72347
H	4.34965	-1.10282	-1.86127
H	6.33583	1.62149	0.678082
H	4.79152	0.21047	2.15886
