18
  This energy is -1.505 and Call times are: 101666
C	0.0849325	-1.12684	-0.0970867
C	0.884979	-0.403259	0.737619
C	0.481544	0.95816	0.583038
C	-0.529422	0.946344	-0.332484
O	-0.784821	-0.318691	-0.758479
H	0.0361334	-2.20776	-0.307955
H	1.67952	-0.789472	1.39613
H	0.901096	1.83738	1.09787
H	-1.13956	1.7597	-0.758438
C	3.97357	-0.905691	-0.415208
C	3.86361	0.416963	-0.788891
N	4.7414	1.19203	-0.106781
C	5.39343	0.353389	0.687045
N	4.9669	-0.923143	0.538297
H	3.43327	-1.80573	-0.749194
H	3.16663	0.825883	-1.53846
H	6.19258	0.620998	1.39697
H	5.32472	-1.76565	1.05154
