18
  This energy is -1.1263 and Call times are: 74934
C	0.224945	1.11014	0.0581977
C	-1.04893	0.62326	0.0344074
C	-0.923132	-0.797534	-0.0406865
C	0.416509	-1.05345	-0.0561554
O	1.13259	0.100089	0.00360645
H	0.612893	2.14061	0.111954
H	-1.98344	1.20615	0.0665169
H	-1.74071	-1.53526	-0.0783763
H	0.979491	-1.99988	-0.106884
C	4.5074	0.452647	-0.619248
C	4.42372	-0.22542	0.578403
N	5.65014	-0.607103	1.01053
C	6.49145	-0.167494	0.0844866
N	5.85117	0.478077	-0.918945
H	3.73167	0.903835	-1.25816
H	3.5004	-0.446072	1.13843
H	7.5864	-0.291036	0.0917079
H	6.29402	0.914774	-1.76419
