18
  This energy is -0.4452 and Call times are: 152498
C	-0.469221	-0.592087	-0.84597
C	-1.16506	-0.240567	0.273235
C	-0.247152	0.484873	1.09257
C	0.928572	0.512621	0.401715
O	0.81106	-0.14031	-0.784407
H	-0.767324	-1.15568	-1.74528
H	-2.21899	-0.469186	0.49918
H	-0.447901	0.930546	2.08007
H	1.90764	0.958407	0.642428
C	7.03831	-0.744691	-0.650456
C	7.5157	0.250762	0.175569
N	6.49945	0.918749	0.773519
C	5.3958	0.339899	0.32017
N	5.66771	-0.668702	-0.541445
H	7.55954	-1.47735	-1.28691
H	8.5752	0.498951	0.350798
H	4.3626	0.61511	0.586598
H	4.9678	-1.27693	-1.03281
