18
  This energy is -0.9569 and Call times are: 169928
C	0.0924806	-1.08053	0.332109
C	-1.05309	-0.359853	0.501387
C	-0.782477	0.936177	-0.0345164
C	0.504577	0.893072	-0.483969
O	1.0542	-0.330994	-0.268133
H	0.34677	-2.12113	0.592375
H	-1.99427	-0.706159	0.957843
H	-1.47212	1.79452	-0.076178
H	1.1354	1.65577	-0.969359
C	4.45187	-0.385682	0.371156
C	4.95507	-0.461346	-0.910328
N	6.19464	0.0817468	-0.981387
C	6.45941	0.492768	0.251325
N	5.4397	0.233707	1.10377
H	3.49271	-0.717696	0.799322
H	4.44593	-0.898078	-1.78491
H	7.38476	0.989556	0.584734
H	5.4077	0.461318	2.1277
