18
  This energy is -0.9915 and Call times are: 30103
C	0.761027	-0.143083	0.828714
C	0.521903	-1.09728	-0.116116
C	-0.485399	-0.556182	-0.972079
C	-0.7729	0.680906	-0.474756
O	-0.0209647	0.949616	0.624972
H	1.45301	-0.120875	1.68657
H	1.00626	-2.08327	-0.201714
H	-0.937323	-1.03922	-1.85329
H	-1.48248	1.456	-0.807885
C	4.31074	-0.770849	0.0098991
C	4.58015	0.169253	-0.962093
N	5.68435	0.890819	-0.651283
C	6.09837	0.400223	0.509115
N	5.30338	-0.603583	0.949512
H	3.50961	-1.52199	0.0965608
H	3.99758	0.339807	-1.88208
H	6.97785	0.739218	1.07994
H	5.4208	-1.15028	1.83754
