18
  This energy is -1.1859 and Call times are: 65314
C	0.843583	-0.209365	0.728652
C	-0.404637	-0.736393	0.885371
C	-1.17513	-0.2506	-0.214839
C	-0.329731	0.530404	-0.946757
O	0.907292	0.566849	-0.3851
H	1.7605	-0.309367	1.3324
H	-0.748328	-1.40061	1.69456
H	-2.23499	-0.463277	-0.428288
H	-0.484881	1.10634	-1.87384
C	4.70959	0.905461	-0.743789
C	4.77649	0.952441	0.632606
N	4.60703	-0.279006	1.17236
C	4.43566	-1.08687	0.13476
N	4.48906	-0.420486	-1.04281
H	4.8003	1.69541	-1.50622
H	4.94398	1.85283	1.24587
H	4.2673	-2.17488	0.180657
H	4.38272	-0.834931	-2.00103
