18
  This energy is -0.8493 and Call times are: 134728
C	-0.552574	-0.409517	-0.901864
C	-0.0895146	0.872341	-0.849056
C	0.539994	1.00845	0.425821
C	0.406047	-0.20225	1.03953
O	-0.258719	-1.08018	0.243072
H	-1.09913	-0.957668	-1.68675
H	-0.181962	1.64458	-1.62956
H	1.03267	1.9072	0.830304
H	0.735385	-0.561019	2.0285
C	4.93758	-1.03358	-0.022217
C	4.36536	0.220607	-0.0490536
N	5.31133	1.19022	-0.010274
C	6.46602	0.540025	0.0404277
N	6.29395	-0.803091	0.0355154
H	4.49049	-2.04023	-0.0395386
H	3.28688	0.443237	-0.095703
H	7.46721	0.998356	0.0825132
H	7.04978	-1.53031	0.0692566
