18
  This energy is -1.3798 and Call times are: 152242
C	-0.00317837	0.0389236	-1.13352
C	0.121605	1.15853	-0.364571
C	0.0822382	0.708592	0.990466
C	-0.0631261	-0.646243	0.929938
O	-0.117071	-1.07232	-0.359464
H	-0.0249376	-0.0982189	-2.22713
H	0.230453	2.19706	-0.716281
H	0.154494	1.32891	1.89825
H	-0.13966	-1.40943	1.72173
C	5.52068	-0.3121	0.178215
C	4.41136	-0.799113	0.836523
N	3.27649	-0.217659	0.377723
C	3.68024	0.626859	-0.56164
N	5.02495	0.606849	-0.719544
H	6.59206	-0.54661	0.28162
H	4.40953	-1.55962	1.63432
H	3.03315	1.284	-1.1647
H	5.58349	1.18182	-1.39682
