18
  This energy is -0.948 and Call times are: 194233
C	-0.808699	-0.588845	0.53448
C	-0.625481	-0.658741	-0.815305
C	0.469871	0.210394	-1.10673
C	0.859314	0.734679	0.0907007
O	0.08937	0.257494	1.10386
H	-1.53322	-1.08541	1.20063
H	-1.20367	-1.26183	-1.53369
H	0.909805	0.415153	-2.09598
H	1.65887	1.44743	0.351362
C	5.92067	0.596918	-0.425621
C	5.03577	1.02094	0.54304
N	4.09463	0.0780563	0.791539
C	4.39453	-0.927075	-0.0198746
N	5.48748	-0.662813	-0.774349
H	6.79871	1.08615	-0.876433
H	5.05954	1.99031	1.06707
H	3.8471	-1.87985	-0.102089
H	5.92207	-1.29677	-1.48883
