18
  This energy is -1.273 and Call times are: 189801
C	-0.725397	0.755917	-0.4345
C	-0.0810631	-0.16552	-1.20661
C	0.7325	-0.925312	-0.311657
C	0.513504	-0.401101	0.928349
O	-0.374133	0.626486	0.871974
H	-1.44846	1.54751	-0.691067
H	-0.169778	-0.296986	-2.297
H	1.39999	-1.763	-0.570186
H	0.922438	-0.666688	1.91703
C	3.94426	0.499927	0.143424
C	4.97948	0.476869	1.05388
N	6.05186	-0.186705	0.557716
C	5.68332	-0.573838	-0.655926
N	4.42089	-0.184091	-0.952533
H	2.93575	0.940007	0.196102
H	4.97182	0.927149	2.05988
H	6.29879	-1.1452	-1.36935
H	3.90373	-0.367947	-1.84696
