18
  This energy is -1.4151 and Call times are: 89071
C	-1.0426	0.366134	0.255609
C	-0.612631	-0.890081	0.567738
C	0.731325	-0.972997	0.091267
C	1.00399	0.23987	-0.469964
O	-0.0681682	1.07	-0.378479
H	-2.00621	0.873008	0.428204
H	-1.1845	-1.67918	1.08192
H	1.40865	-1.83916	0.162576
H	1.91036	0.631376	-0.960332
C	4.84288	0.971351	-0.648966
C	4.67154	-0.31582	-1.11262
N	4.53683	-1.19088	-0.0866407
C	4.62426	-0.449388	1.00934
N	4.80902	0.861182	0.723224
H	4.98187	1.9261	-1.18064
H	4.64271	-0.628779	-2.16907
H	4.55969	-0.815115	2.04679
H	4.90768	1.64419	1.4149
