18
  This energy is -0.9614 and Call times are: 207764
C	1.00911	0.432421	-0.284791
C	0.279489	-0.342488	-1.13775
C	-0.91096	-0.689897	-0.42905
C	-0.803713	-0.0966164	0.794425
O	0.362666	0.592919	0.899844
H	1.98956	0.923022	-0.400078
H	0.55223	-0.639644	-2.16313
H	-1.74473	-1.30997	-0.795698
H	-1.47966	-0.0894003	1.66523
C	4.96039	0.107729	1.1472
C	5.59947	-0.947164	0.530831
N	5.70811	-0.740069	-0.804018
C	5.13858	0.438817	-1.01495
N	4.67208	0.990394	0.13036
H	4.69907	0.286798	2.20228
H	5.98413	-1.85398	1.02537
H	5.03612	0.944803	-1.98845
H	4.1838	1.91439	0.225597
