18
  This energy is -1.2011 and Call times are: 192684
C	0.196718	-1.10752	0.14525
C	0.907966	-0.146988	0.802421
C	0.375465	1.10332	0.362771
C	-0.61418	0.796456	-0.524253
O	-0.7371	-0.549239	-0.669193
H	0.257743	-2.20793	0.170187
H	1.72558	-0.303237	1.52436
H	0.698122	2.10922	0.676054
H	-1.29408	1.43572	-1.11105
C	6.04482	-0.271079	0.468994
C	5.26482	-1.07533	-0.334698
N	4.122	-0.443175	-0.696442
C	4.19276	0.748712	-0.11936
N	5.33323	0.901122	0.594566
H	7.02328	-0.444178	0.94459
H	5.50618	-2.10039	-0.660019
H	3.43714	1.54792	-0.186763
H	5.62063	1.75043	1.13986
