18
  This energy is -1.1128 and Call times are: 62182
C	0.695577	-0.0162224	-0.895718
C	1.08884	-0.43276	0.342109
C	-0.0472001	-0.262868	1.19103
C	-1.03439	0.24249	0.397031
O	-0.598233	0.399513	-0.880514
H	1.23478	0.0333	-1.85596
H	2.07953	-0.820734	0.628638
H	-0.112445	-0.492928	2.26663
H	-2.07587	0.528401	0.617986
C	5.29528	0.907667	-0.743071
C	5.78688	0.83609	0.543145
N	5.49502	-0.358787	1.112
C	4.82492	-1.02594	0.182229
N	4.6783	-0.305084	-0.954635
H	5.33936	1.70906	-1.49763
H	6.34693	1.62521	1.07087
H	4.41882	-2.0455	0.281321
H	4.18804	-0.611623	-1.83039
