18
  This energy is -1.5754 and Call times are: 187194
C	-0.233258	-0.349763	1.0534
C	1.02551	-0.396316	0.530234
C	0.916955	0.121706	-0.796411
C	-0.398569	0.439085	-0.966823
O	-1.1156	0.157714	0.152871
H	-0.626065	-0.643943	2.04053
H	1.93886	-0.759054	1.02854
H	1.7294	0.240465	-1.53121
H	-0.942423	0.865682	-1.82559
C	5.49676	1.0871	0.405688
C	6.33972	0.000728146	0.50741
N	5.79445	-1.09671	-0.0712346
C	4.61769	-0.692686	-0.530185
N	4.39163	0.616323	-0.267543
H	5.6016	2.12721	0.753149
H	7.33158	-0.0108858	0.987957
H	3.88229	-1.31422	-1.06601
H	3.53727	1.16757	-0.527274
