18
  This energy is -1.2267 and Call times are: 174404
C	-0.84188	-0.359938	-0.669391
C	-0.607401	-0.897161	0.562187
C	0.517496	-0.191826	1.08871
C	0.871123	0.714153	0.132403
O	0.0516342	0.625427	-0.948142
H	-1.6028	-0.588085	-1.43373
H	-1.17013	-1.70872	1.05086
H	1.00035	-0.347782	2.06678
H	1.67539	1.46741	0.100672
C	4.73063	-0.0360451	1.16907
C	4.51701	1.08444	0.394453
N	4.41284	0.75922	-0.916995
C	4.56127	-0.558007	-0.955814
N	4.75556	-1.08438	0.276571
H	4.86227	-0.157539	2.25602
H	4.43618	2.12169	0.758356
H	4.53637	-1.1872	-1.8601
H	4.89805	-2.09797	0.508079
