18
  This energy is -0.8039 and Call times are: 164542
C	0.93483	0.389191	-0.510905
C	0.860911	0.210548	0.839279
C	-0.453815	-0.284751	1.09675
C	-1.06725	-0.365055	-0.118828
O	-0.233803	0.0426156	-1.1119
H	1.75134	0.751661	-1.1568
H	1.65277	0.407775	1.57966
H	-0.883987	-0.547901	2.07644
H	-2.08005	-0.691745	-0.406485
C	5.07935	-0.742817	0.560335
C	4.78514	0.537291	0.14092
N	5.85088	1.10785	-0.471603
C	6.80262	0.185204	-0.43233
N	6.38662	-0.948748	0.17979
H	4.47124	-1.49667	1.08517
H	3.82298	1.05941	0.26931
H	7.82245	0.287658	-0.836906
H	6.95218	-1.819	0.334934
