18
  This energy is -1.8217 and Call times are: 154963
C	0.0287141	0.724706	-0.871996
C	0.921449	0.784873	0.157459
C	0.566016	-0.27569	1.04571
C	-0.512543	-0.890328	0.48064
O	-0.85428	-0.292434	-0.691004
H	-0.082639	1.33978	-1.78004
H	1.74741	1.50396	0.279127
H	1.0616	-0.542389	1.993
H	-1.11845	-1.75093	0.808512
C	3.81632	-1.01069	0.151365
C	4.53397	-0.318896	1.10401
N	5.0784	0.807506	0.583118
C	4.69993	0.814474	-0.68784
N	3.93726	-0.260802	-0.997211
H	3.24709	-1.95215	0.207617
H	4.66868	-0.612351	2.15785
H	4.95313	1.583	-1.43584
H	3.51797	-0.481245	-1.93362
