18
  This energy is -0.9511 and Call times are: 90773
C	0.725984	-0.856371	-0.161176
C	-0.491746	-1.03211	0.427571
C	-1.10431	0.257969	0.451488
C	-0.206834	1.10818	-0.124756
O	0.916646	0.444606	-0.504861
H	1.53695	-1.56724	-0.389756
H	-0.916069	-1.97557	0.806958
H	-2.09801	0.513634	0.853105
H	-0.248184	2.19233	-0.320059
C	4.20456	0.198478	0.595651
C	5.07153	-0.860626	0.76243
N	6.11904	-0.773978	-0.0929743
C	5.90275	0.334664	-0.78778
N	4.76104	0.957001	-0.409917
H	3.26241	0.457435	1.10441
H	4.95996	-1.68573	1.48465
H	6.54846	0.736948	-1.58494
H	4.37357	1.84764	-0.80726
