18
  This energy is -0.692 and Call times are: 146906
C	0.868451	-0.190491	0.704206
C	-0.227187	-1.00164	0.659544
C	-1.08706	-0.4429	-0.334717
C	-0.440966	0.660357	-0.809863
O	0.754796	0.829626	-0.186555
H	1.78353	-0.230926	1.3176
H	-0.411388	-1.90301	1.26592
H	-2.0705	-0.824931	-0.652498
H	-0.722313	1.39735	-1.57989
C	7.78288	0.784487	0.39594
C	6.51274	0.563788	0.884985
N	5.88506	-0.415969	0.19028
C	6.76248	-0.801617	-0.726254
N	7.92241	-0.10785	-0.643509
H	8.57105	1.48987	0.70378
H	6.03799	1.09395	1.72665
H	6.60716	-1.58764	-1.48274
H	8.76708	-0.227011	-1.25472
