18
  This energy is -1.3572 and Call times are: 162181
C	-0.686456	0.648508	-0.628185
C	-0.271426	1.01719	0.617686
C	0.567005	-0.0426873	1.08008
C	0.590313	-0.965485	0.0759515
O	-0.169756	-0.559677	-0.97506
H	-1.34102	1.15091	-1.3592
H	-0.52978	1.94267	1.15698
H	1.08796	-0.102361	2.04917
H	1.10235	-1.9378	-0.011694
C	5.16577	-0.705516	0.666404
C	4.09599	0.0583959	1.08252
N	3.55876	0.750987	0.048974
C	4.29246	0.418006	-1.00432
N	5.27426	-0.45774	-0.683791
H	5.8352	-1.38525	1.21718
H	3.70216	0.122218	2.10998
H	4.15417	0.7861	-2.03369
H	5.98307	-0.869523	-1.33899
