18
  This energy is -1.3563 and Call times are: 167610
C	-0.72422	-0.533781	0.690641
C	0.323398	0.203257	1.15931
C	0.993313	0.709368	0.0038042
C	0.295933	0.23693	-1.06897
O	-0.756213	-0.524138	-0.667997
H	-1.50774	-1.10592	1.2141
H	0.596976	0.373455	2.21301
H	1.88957	1.34999	-0.0165259
H	0.444533	0.368997	-2.15328
C	4.41421	-0.0467397	1.07094
C	4.09565	-0.831389	-0.0171711
N	4.85415	-0.506996	-1.09233
C	5.64028	0.475162	-0.672804
N	5.4134	0.789132	0.62471
H	4.01393	-0.0247576	2.09702
H	3.3321	-1.62576	-0.0457158
H	6.39978	1.00003	-1.27438
H	5.905	1.52845	1.18418
