18
  This energy is -1.3754 and Call times are: 113108
C	0.59689	-0.684273	-0.679627
C	-0.367794	-1.15236	0.163378
C	-0.884284	-0.00619136	0.841363
C	-0.189625	1.06111	0.352814
O	0.719093	0.665376	-0.577043
H	1.25809	-1.20233	-1.39355
H	-0.683964	-2.19969	0.29462
H	-1.68053	0.0118261	1.60279
H	-0.24707	2.13783	0.582245
C	4.00429	0.700428	-0.640686
C	4.79332	1.07094	0.427631
N	5.46437	0.00691448	0.931673
C	5.09305	-1.01978	0.178912
N	4.21356	-0.653117	-0.783193
H	3.33113	1.28469	-1.28802
H	4.89042	2.08694	0.84375
H	5.43462	-2.06165	0.288723
H	3.77471	-1.28041	-1.50094
