18
  This energy is -0.8725 and Call times are: 146596
C	-0.456559	-0.58441	0.858149
C	0.881829	-0.335211	0.774532
C	1.06551	0.415237	-0.426804
C	-0.176852	0.55838	-0.971255
O	-1.11839	-0.0459598	-0.199707
H	-1.05385	-1.12579	1.61008
H	1.66152	-0.648431	1.48732
H	2.01593	0.799553	-0.83065
H	-0.518571	1.06117	-1.89086
C	6.3834	-0.629709	0.612248
C	5.2816	0.0318349	1.1118
N	4.5971	0.656772	0.123148
C	5.27169	0.38396	-0.985514
N	6.35703	-0.388653	-0.743254
H	7.15851	-1.23478	1.10886
H	4.9683	0.0694032	2.16787
H	5.01489	0.724657	-2.00149
H	7.04698	-0.737573	-1.45282
