18
  This energy is -0.8528 and Call times are: 181011
C	-0.207331	-0.999624	-0.494131
C	-1.11266	0.0205242	-0.501456
C	-0.496617	1.0951	0.209813
C	0.730782	0.636745	0.588994
O	0.924239	-0.640723	0.167496
H	-0.247914	-2.01618	-0.918646
H	-2.11385	0.0167085	-0.961571
H	-0.925198	2.09009	0.410817
H	1.54736	1.11535	1.15414
C	4.50336	0.404939	0.987151
C	5.24148	1.12896	0.0749447
N	5.66221	0.343822	-0.946356
C	5.18691	-0.86269	-0.668793
N	4.4812	-0.877762	0.486777
H	4.00879	0.701815	1.92566
H	5.47798	2.20379	0.135422
H	5.32596	-1.77051	-1.27769
H	4.00743	-1.70833	0.919166
