18
  This energy is -1.0334 and Call times are: 97413
C	0.981846	0.0411135	0.566294
C	0.735467	0.819942	-0.525997
C	-0.585983	0.486821	-0.953686
C	-1.03047	-0.466165	-0.084996
O	-0.0858516	-0.750499	0.849811
H	1.86514	-0.0421953	1.22059
H	1.41601	1.55526	-0.984544
H	-1.13372	0.912503	-1.80977
H	-1.98584	-1.01298	-0.0257873
C	4.6807	-0.47628	0.991181
C	4.97217	0.85324	0.770792
N	5.43798	1.04943	-0.4866
C	5.4355	-0.153797	-1.04414
N	4.98742	-1.10743	-0.19362
H	4.28976	-1.00045	1.87772
H	4.85469	1.67443	1.49653
H	5.75166	-0.392938	-2.07229
H	4.89187	-2.13234	-0.39783
