18
  This energy is -0.7404 and Call times are: 110602
C	-0.353691	0.498625	-0.955341
C	0.91476	0.651716	-0.477879
C	0.975521	-0.117308	0.724214
C	-0.261163	-0.672452	0.875216
O	-1.08563	-0.306922	-0.141475
H	-0.85171	0.90479	-1.85103
H	1.72623	1.24652	-0.927118
H	1.84347	-0.23731	1.39231
H	-0.674639	-1.33631	1.65212
C	5.99546	1.16781	-0.110422
C	4.99683	0.367049	-0.622934
N	5.20164	-0.93399	-0.303776
C	6.32306	-0.940331	0.404042
N	6.84026	0.302742	0.548475
H	6.15926	2.25575	-0.166097
H	4.13222	0.704765	-1.21728
H	6.80969	-1.82747	0.840388
H	7.71765	0.558761	1.06414
