18
  This energy is -1.2414 and Call times are: 131793
C	-0.478066	0.945229	-0.405459
C	-0.856529	-0.298997	-0.816607
C	-0.0376568	-1.21668	-0.0903648
C	0.768919	-0.452224	0.70047
O	0.513548	0.870482	0.520892
H	-0.832167	1.94909	-0.692035
H	-1.63432	-0.545811	-1.55703
H	-0.0543099	-2.31647	-0.155749
H	1.5542	-0.725224	1.42439
C	5.69796	-0.542483	0.856297
C	6.19331	0.375624	-0.0452867
N	5.22525	0.797892	-0.894429
C	4.13348	0.144235	-0.52105
N	4.36677	-0.67643	0.530461
H	6.18239	-1.09168	1.67925
H	7.23188	0.740906	-0.0982823
H	3.13674	0.229102	-0.983145
H	3.66692	-1.29659	1.00676
