18
  This energy is -1.4825 and Call times are: 113914
C	0.0981866	-0.154449	1.11933
C	0.278203	1.06306	0.531415
C	0.074015	0.855996	-0.866995
C	-0.212753	-0.469762	-1.01018
O	-0.202286	-1.10215	0.19273
H	0.15532	-0.473082	2.17312
H	0.529564	2.01178	1.03225
H	0.135585	1.61226	-1.66597
H	-0.439726	-1.0765	-1.90214
C	5.47263	-0.00667538	0.484261
C	4.47509	0.921448	0.695541
N	3.36747	0.620936	-0.0251357
C	3.67669	-0.489393	-0.68101
N	4.93515	-0.907806	-0.407518
H	6.49292	-0.0869911	0.891807
H	4.53474	1.80253	1.35507
H	3.01887	-1.0377	-1.37445
H	5.41081	-1.75689	-0.800023
