18
  This energy is -1.4593 and Call times are: 165572
C	-0.222442	-0.315937	1.06635
C	0.88488	-0.742727	0.393995
C	0.814122	-0.139371	-0.898705
C	-0.330193	0.602858	-0.902184
O	-0.97577	0.506607	0.289864
H	-0.582846	-0.523018	2.08737
H	1.67251	-1.41499	0.770568
H	1.53598	-0.250817	-1.72369
H	-0.789051	1.23529	-1.67983
C	5.09609	-1.1509	0.226488
C	5.8953	-0.40298	-0.611978
N	5.49979	0.892966	-0.63651
C	4.45917	0.948807	0.183619
N	4.17617	-0.257888	0.728955
H	5.1162	-2.21976	0.492296
H	6.75023	-0.775242	-1.19966
H	3.86781	1.84781	0.420913
H	3.40325	-0.472342	1.40561
