18
  This energy is -1.0104 and Call times are: 201295
C	0.776365	0.779634	0.275371
C	0.942246	-0.54572	0.551588
C	-0.229619	-1.19734	0.0594163
C	-1.00816	-0.212666	-0.474113
O	-0.409276	1.00108	-0.350912
H	1.41982	1.65322	0.470462
H	1.80344	-1.01719	1.05175
H	-0.457672	-2.2745	0.102107
H	-1.99524	-0.245747	-0.963831
C	4.92083	-0.72803	0.497948
C	6.27391	-0.66272	0.754923
N	6.86895	0.293044	0.000631904
C	5.88874	0.818665	-0.721538
N	4.69469	0.236956	-0.458008
H	4.12925	-1.37145	0.913825
H	6.83146	-1.28811	1.47108
H	5.99002	1.63171	-1.45838
H	3.77237	0.475578	-0.898065
