18
  This energy is -1.0076 and Call times are: 171781
C	0.362693	-0.3241	-1.0246
C	1.17424	0.307454	-0.128552
C	0.368387	0.549969	1.02553
C	-0.864464	0.045205	0.732843
O	-0.88596	-0.492435	-0.515152
H	0.551397	-0.699543	-2.04376
H	2.23403	0.575636	-0.266447
H	0.679145	1.04357	1.96035
H	-1.79702	0.00719788	1.31948
C	4.70927	-0.843099	0.2214
C	5.73459	-0.891379	-0.699207
N	6.45444	0.256766	-0.689517
C	5.87788	1.01444	0.233591
N	4.82103	0.395976	0.811646
H	3.93386	-1.57828	0.489337
H	5.96785	-1.73409	-1.37024
H	6.18909	2.03024	0.526058
H	4.20426	0.78604	1.56578
