18
  This energy is -1.0706 and Call times are: 70222
C	0.821183	0.756977	-0.197598
C	0.87848	-0.522228	-0.667412
C	-0.319441	-1.1576	-0.218634
C	-1.00302	-0.210577	0.485803
O	-0.321067	0.96476	0.508874
H	1.51979	1.60402	-0.296187
H	1.68355	-0.973166	-1.26958
H	-0.627829	-2.19912	-0.403671
H	-1.9712	-0.247599	1.01164
C	4.68142	-0.588421	0.877457
C	4.43709	0.714034	0.496594
N	5.21487	1.06983	-0.55459
C	5.93895	-0.00780597	-0.824826
N	5.65413	-1.03451	0.0108419
H	4.24645	-1.20872	1.67718
H	3.71354	1.4034	0.961458
H	6.69236	-0.0994667	-1.6237
H	6.09105	-1.98859	0.000552514
