18
  This energy is -1.6006 and Call times are: 161348
C	-0.921064	-0.621195	-0.228381
C	-0.393325	0.259906	-1.12589
C	0.741909	0.840677	-0.482412
C	0.80768	0.263208	0.751515
O	-0.200198	-0.632087	0.923681
H	-1.79489	-1.29059	-0.288287
H	-0.766072	0.478904	-2.1394
H	1.42435	1.5995	-0.897809
H	1.51342	0.401899	1.58695
C	4.01562	-0.82961	0.679862
C	3.9213	-0.724648	-0.691718
N	4.60314	0.354288	-1.14724
C	5.11849	0.91653	-0.0623811
N	4.79282	0.240055	1.06452
H	3.59858	-1.56526	1.38586
H	3.37348	-1.4081	-1.36078
H	5.74199	1.82472	-0.0363353
H	5.07802	0.483942	2.04454
