18
  This energy is -0.5868 and Call times are: 202063
C	0.764228	-0.589261	0.595926
C	-0.564038	-0.89916	0.602711
C	-1.19254	0.0550536	-0.254363
C	-0.192864	0.863824	-0.709233
O	1.00884	0.484787	-0.200063
H	1.62499	-1.04959	1.10821
H	-1.05226	-1.7176	1.15578
H	-2.26496	0.123546	-0.497938
H	-0.206602	1.73119	-1.38949
C	7.11064	0.083817	-0.380191
C	6.30959	-1.03814	-0.406085
N	5.08541	-0.776576	0.113039
C	5.12686	0.502782	0.459666
N	6.32667	1.06607	0.182608
H	8.14848	0.247306	-0.711384
H	6.59301	-2.03167	-0.790044
H	4.30682	1.07694	0.920205
H	6.6064	2.06143	0.362289
