18
  This energy is -0.8812 and Call times are: 134856
C	-0.378523	-0.0491776	-1.06804
C	-1.04568	-0.628954	-0.0292235
C	-0.267952	-0.354336	1.1369
C	0.80581	0.369013	0.707743
O	0.754446	0.564723	-0.636159
H	-0.602873	-0.00315767	-2.14637
H	-1.99068	-1.19339	-0.0791161
H	-0.490056	-0.663513	2.17091
H	1.6636	0.797136	1.25195
C	5.1749	-0.318408	-1.09915
C	5.22397	-1.11027	0.0285351
N	4.8385	-0.4187	1.12837
C	4.55138	0.797574	0.684682
N	4.73819	0.908544	-0.651872
H	5.41193	-0.533989	-2.15314
H	5.53061	-2.16822	0.0682646
H	4.2002	1.64476	1.29557
H	4.58041	1.76589	-1.2361
