18
  This energy is -1.0708 and Call times are: 205382
C	0.0582509	1.0899	0.308416
C	-0.742614	0.660418	-0.708704
C	-0.544246	-0.751553	-0.793003
C	0.360327	-1.06026	0.180045
O	0.739069	0.0523404	0.86246
H	0.230509	2.09418	0.729125
H	-1.40646	1.27614	-1.33662
H	-1.02371	-1.44824	-1.49928
H	0.808595	-2.02059	0.483461
C	5.16494	-0.634644	0.921487
C	4.06905	0.200768	0.874006
N	3.94445	0.774356	-0.347461
C	4.95919	0.296601	-1.05505
N	5.72426	-0.557192	-0.334439
H	5.57277	-1.25799	1.73306
H	3.36605	0.399911	1.69922
H	5.18866	0.538894	-2.10523
H	6.5804	-1.06366	-0.668761
