18
  This energy is -1.492 and Call times are: 192011
C	0.858741	-0.690937	0.267527
C	0.947209	0.229971	-0.734708
C	-0.315551	0.896754	-0.765603
C	-1.0642	0.324446	0.22048
O	-0.362774	-0.6471	0.861658
H	1.58495	-1.42647	0.650747
H	1.81467	0.420607	-1.38683
H	-0.621815	1.70716	-1.44644
H	-2.095	0.516672	0.560712
C	5.06557	0.598054	1.0115
C	5.75609	0.862323	-0.152325
N	5.4378	-0.0288139	-1.12242
C	4.55319	-0.842825	-0.562542
N	4.29543	-0.506557	0.723566
H	5.06764	1.1011	1.99154
H	6.47826	1.68003	-0.309418
H	4.06268	-1.70121	-1.04917
H	3.63478	-0.994362	1.3769
