18
  This energy is -1.1972 and Call times are: 105103
C	0.72621	-0.538307	0.685014
C	-0.595759	-0.867457	0.618447
C	-1.17195	0.0204551	-0.340577
C	-0.151225	0.813813	-0.775397
O	1.01523	0.48645	-0.159587
H	1.55327	-0.951816	1.28521
H	-1.11324	-1.65637	1.18759
H	-2.225	0.0568484	-0.662842
H	-0.125887	1.63575	-1.50959
C	4.29657	-0.332578	-0.882991
C	5.52667	-0.864903	-0.559506
N	6.06101	-0.240844	0.518241
C	5.16581	0.675146	0.862053
N	4.08403	0.659771	0.0477386
H	3.58126	-0.581404	-1.68296
H	6.03818	-1.68808	-1.08446
H	5.25213	1.3834	1.70179
H	3.24353	1.28472	0.112958
