18
  This energy is -0.7301 and Call times are: 100024
C	0.0257562	0.647905	-0.930568
C	-0.80245	-0.429456	-0.813345
C	-0.547853	-0.97945	0.480025
C	0.413458	-0.189629	1.03899
O	0.775505	0.809163	0.191432
H	0.174192	1.37022	-1.75
H	-1.52061	-0.799723	-1.5625
H	-1.02937	-1.86093	0.933043
H	0.91614	-0.232571	2.01915
C	6.56471	-0.500135	0.0368629
C	6.23096	0.691824	-0.570581
N	4.91264	0.965918	-0.417531
C	4.43038	-0.0521299	0.2822
N	5.38719	-0.962613	0.58071
H	7.52479	-1.03418	0.117912
H	6.91778	1.35895	-1.11654
H	3.38409	-0.180923	0.603027
H	5.25687	-1.85148	1.1231
