18
  This energy is -0.9974 and Call times are: 210200
C	0.627409	0.239599	-0.913975
C	-0.120963	-0.896767	-0.819185
C	-0.757368	-0.840392	0.458284
C	-0.341714	0.325448	1.03137
O	0.504442	0.997685	0.207273
H	1.28192	0.619209	-1.7157
H	-0.215374	-1.69466	-1.57321
H	-1.44331	-1.58588	0.891661
H	-0.572694	0.783498	2.00712
C	5.23443	-0.0417772	1.17565
C	4.12685	0.190536	0.387971
N	4.44994	0.169168	-0.927958
C	5.75299	-0.0754703	-0.956533
N	6.27239	-0.210644	0.286666
H	5.35347	-0.097037	2.26942
H	3.1004	0.373183	0.745602
H	6.37635	-0.16577	-1.86069
H	7.2748	-0.406727	0.527464
