18
  This energy is -1.1084 and Call times are: 167418
C	-0.994524	0.541735	0.0620089
C	-0.229054	0.546972	-1.06689
C	0.927854	-0.231835	-0.758437
C	0.767225	-0.64424	0.531715
O	-0.401335	-0.18099	1.04832
H	-1.96787	1.00757	0.287508
H	-0.456297	1.04891	-2.02109
H	1.77595	-0.45379	-1.42594
H	1.40361	-1.26204	1.18639
C	7.09974	1.00471	-0.354838
C	6.30651	0.164323	-1.10695
N	5.89999	-0.904504	-0.379717
C	6.43899	-0.727858	0.818993
N	7.17159	0.409057	0.884606
H	7.60144	1.95286	-0.605542
H	6.02023	0.310057	-2.1613
H	6.32933	-1.40034	1.685
H	7.69467	0.768332	1.72041
