18
  This energy is -0.6962 and Call times are: 192139
C	-0.089827	0.178007	1.11653
C	-1.15421	-0.191564	0.347843
C	-0.650705	-0.316771	-0.982918
C	0.676912	-0.0126601	-0.909961
O	1.0366	0.291947	0.364736
H	-0.00494935	0.387674	2.19546
H	-2.19	-0.35919	0.684192
H	-1.21849	-0.600776	-1.8835
H	1.46237	0.0227932	-1.68266
C	5.73534	1.1159	0.264214
C	4.85512	0.123436	-0.111754
N	5.50398	-1.04398	-0.341157
C	6.78188	-0.776764	-0.108389
N	6.97301	0.512283	0.259607
H	5.57397	2.17372	0.525986
H	3.76348	0.228818	-0.221595
H	7.6191	-1.48828	-0.192381
H	7.88941	0.965534	0.496315
