18
  This energy is -0.7791 and Call times are: 183704
C	0.508171	-0.224476	-0.988824
C	-0.742578	-0.679458	-0.690509
C	-1.03113	-0.197354	0.622667
C	0.0687642	0.509677	1.01089
O	1.01867	0.50357	0.038963
H	1.13656	-0.348476	-1.88605
H	-1.3964	-1.29302	-1.33094
H	-1.95316	-0.362801	1.20282
H	0.295662	1.05648	1.94083
C	4.66702	0.563229	-0.0285433
C	5.79113	0.931687	0.679805
N	6.80331	0.0525685	0.481939
C	6.30901	-0.857808	-0.346013
N	5.02428	-0.594375	-0.683147
H	3.67133	1.02739	-0.110395
H	5.88996	1.81611	1.3301
H	6.84458	-1.73786	-0.73704
H	4.4162	-1.16352	-1.32156
