18
  This energy is -2.1626 and Call times are: 49392
C	0.0565754	0.781131	0.820386
C	0.0339161	-0.556557	1.08581
C	-0.0392492	-1.20599	-0.184232
C	-0.0548409	-0.207827	-1.11364
O	0.00306315	1.01226	-0.517794
H	0.108762	1.65789	1.48658
H	0.0655495	-1.03771	2.07656
H	-0.0756226	-2.29078	-0.373974
H	-0.104456	-0.234685	-2.21458
C	3.27939	-1.0761	0.352578
C	3.40996	0.0480666	1.1402
N	3.79691	1.11812	0.40416
C	3.90598	0.659537	-0.835366
N	3.60447	-0.657948	-0.918508
H	2.98787	-2.10959	0.598453
H	3.23189	0.106209	2.22637
H	4.20303	1.24555	-1.72001
H	3.61612	-1.2484	-1.78597
