18
  This energy is -0.9776 and Call times are: 204838
C	1.00256	-0.366985	0.38288
C	-0.159275	-1.0434	0.613062
C	-1.18818	-0.278957	-0.0170957
C	-0.564271	0.797108	-0.57673
O	0.773872	0.759453	-0.342275
H	2.04324	-0.579986	0.677594
H	-0.27967	-1.98609	1.17067
H	-2.26494	-0.511111	-0.045214
H	-0.955209	1.64775	-1.15882
C	5.04233	0.0996845	-1.17191
C	5.55034	-0.931296	-0.410234
N	5.32412	-0.721373	0.909336
C	4.67821	0.435438	0.966073
N	4.48409	0.970259	-0.262697
H	5.03867	0.269784	-2.2603
H	6.07605	-1.82285	-0.789194
H	4.32427	0.936511	1.88143
H	4.00048	1.87561	-0.481159
