18
  This energy is -0.7 and Call times are: 84087
C	-0.451793	-1.03982	-0.0325638
C	0.869353	-0.825351	0.230021
C	1.05226	0.590477	0.184292
C	-0.173253	1.11622	-0.1022
O	-1.10362	0.134893	-0.237948
H	-1.04235	-1.96818	-0.100641
H	1.63798	-1.58769	0.435322
H	1.99091	1.14414	0.347087
H	-0.509305	2.15784	-0.233905
C	7.29405	-0.431851	0.0406386
C	6.90304	0.783733	-0.479563
N	5.56441	0.958263	-0.360672
C	5.12664	-0.144853	0.231035
N	6.13124	-1.01402	0.493557
H	8.28445	-0.907934	0.117998
H	7.56283	1.53796	-0.938539
H	4.08032	-0.36773	0.495168
H	6.04144	-1.95258	0.954329
