18
  This energy is -0.8628 and Call times are: 151954
C	0.755126	-0.562384	0.632384
C	1.03049	0.650231	0.0719263
C	-0.149452	1.02996	-0.637761
C	-1.0417	0.0158681	-0.448334
O	-0.505999	-0.964965	0.32497
H	1.3636	-1.23166	1.26254
H	1.97025	1.22014	0.150392
H	-0.306444	1.95282	-1.21895
H	-2.07501	-0.12505	-0.805641
C	6.78865	0.444329	-0.0501251
C	6.23364	-0.270283	0.99028
N	4.95695	-0.628612	0.71067
C	4.72084	-0.138162	-0.498599
N	5.79437	0.51737	-0.999998
H	7.78747	0.891158	-0.177537
H	6.73154	-0.533736	1.93767
H	3.7791	-0.23007	-1.06333
H	5.8573	0.991019	-1.93432
