18
  This energy is -1.0015 and Call times are: 33862
C	-1.13167	0.0230075	0.0720003
C	-0.460277	0.475147	-1.0258
C	0.926449	0.282992	-0.742628
C	0.980042	-0.269608	0.503218
O	-0.267732	-0.435414	1.01564
H	-2.20882	-0.0260978	0.301366
H	-0.897667	0.901237	-1.94299
H	1.77801	0.530475	-1.39661
H	1.83239	-0.586078	1.12659
C	5.77893	-0.186732	-1.09847
C	4.7024	-0.78764	-0.481104
N	4.55256	-0.336544	0.787979
C	5.53241	0.540876	0.957274
N	6.29948	0.666752	-0.151485
H	6.19747	-0.302208	-2.11091
H	4.03113	-1.5386	-0.928656
H	5.73391	1.11951	1.87314
H	7.13211	1.29484	-0.26762
