18
  This energy is -0.22 and Call times are: 128066
C	-0.277969	1.09923	0.0289013
C	-1.00619	0.14441	0.675739
C	-0.35118	-1.09601	0.406595
C	0.71948	-0.789698	-0.380953
O	0.779563	0.546523	-0.621605
H	-0.406395	2.19162	-0.0448063
H	-1.91358	0.298165	1.28162
H	-0.649748	-2.09522	0.762312
H	1.50243	-1.42323	-0.829148
C	6.44599	1.15611	0.164878
C	6.41266	0.179252	1.13739
N	6.22775	-1.04736	0.591729
C	6.14667	-0.832272	-0.714329
N	6.27233	0.480344	-1.02229
H	6.57664	2.24792	0.231383
H	6.51873	0.337547	2.223
H	5.99576	-1.6002	-1.49005
H	6.24305	0.902781	-1.98247
