18
  This energy is -0.9639 and Call times are: 22055
C	0.58037	0.794864	0.563705
C	1.19608	-0.184646	-0.158674
C	0.146972	-0.979854	-0.712863
C	-1.01723	-0.416086	-0.280219
O	-0.771344	0.668795	0.50054
H	0.986426	1.62885	1.15938
H	2.28028	-0.332378	-0.288275
H	0.256023	-1.86673	-1.35758
H	-2.07091	-0.688551	-0.455641
C	5.58751	-0.968977	-0.662206
C	6.17823	-0.748581	0.56402
N	5.86375	0.478996	1.0443
C	5.08093	1.0181	0.119549
N	4.88428	0.184432	-0.929217
H	5.61684	-1.83605	-1.34107
H	6.82569	-1.45334	1.11079
H	4.62454	2.02026	0.159933
H	4.30624	0.379528	-1.78307
