18
  This energy is -0.8076 and Call times are: 69596
C	-0.989443	-0.504295	0.230414
C	-0.906751	0.637289	-0.511422
C	0.483213	0.958708	-0.580752
C	1.12721	-0.0148361	0.124839
O	0.243246	-0.916613	0.627257
H	-1.85433	-1.1127	0.54197
H	-1.74088	1.1969	-0.964374
H	0.941047	1.81707	-1.09814
H	2.19632	-0.176021	0.33993
C	6.20989	0.402436	0.848053
C	6.02761	-0.912777	0.476391
N	5.1352	-1.01459	-0.53838
C	4.76527	0.232717	-0.795277
N	5.3853	1.12393	0.0139731
H	6.8468	0.860728	1.62127
H	6.52402	-1.79005	0.922271
H	4.04355	0.549722	-1.56525
H	5.26148	2.16599	0.00729759
