18
  This energy is -0.7163 and Call times are: 122855
C	0.35019	0.598018	0.897854
C	-0.96681	0.326095	0.669946
C	-1.00546	-0.435872	-0.537543
C	0.291332	-0.562311	-0.940921
O	1.13271	0.0630469	-0.0760417
H	0.852595	1.15459	1.70598
H	-1.82498	0.631451	1.28994
H	-1.89956	-0.838758	-1.0399
H	0.739959	-1.06594	-1.81289
C	5.51617	-1.0025	-0.0205131
C	4.5665	-0.633763	0.908627
N	4.05581	0.589363	0.626357
C	4.68627	0.977941	-0.473712
N	5.57693	0.0527573	-0.903081
H	6.13249	-1.91087	-0.11304
H	4.24065	-1.22836	1.77761
H	4.53407	1.93045	-1.00644
H	6.19584	0.125454	-1.74743
