18
  This energy is -1.58 and Call times are: 175270
C	-0.236124	-0.941911	-0.586046
C	1.04099	-0.506161	-0.387343
C	0.930084	0.691353	0.383227
C	-0.405008	0.881673	0.587385
O	-1.13202	-0.10636	0.00236437
H	-0.634195	-1.81967	-1.12114
H	1.96813	-0.980433	-0.747292
H	1.75414	1.33016	0.739517
H	-0.957391	1.67013	1.12446
C	5.16698	-0.311683	-1.08492
C	6.372	-0.592507	-0.476474
N	6.41735	-0.0803653	0.777386
C	5.24492	0.515909	0.946162
N	4.45547	0.404388	-0.148335
H	4.77838	-0.56237	-2.08476
H	7.20951	-1.15548	-0.919752
H	4.91269	1.04901	1.85151
H	3.48608	0.789946	-0.261838
