18
  This energy is -0.8528 and Call times are: 9948
C	0.299904	-1.03237	0.361491
C	1.13616	-0.244265	-0.373321
C	0.411662	0.958951	-0.633115
C	-0.803364	0.799901	-0.0341265
O	-0.888943	-0.410458	0.578016
H	0.430756	-2.04176	0.784882
H	2.16045	-0.485974	-0.699669
H	0.762538	1.83562	-1.20094
H	-1.68058	1.46467	0.0277869
C	6.2723	0.157476	-1.13409
C	7.15304	0.0532074	-0.0783608
N	6.49375	-0.123471	1.09238
C	5.20888	-0.128789	0.764194
N	5.02332	0.0371821	-0.566825
H	6.44032	0.303884	-2.21291
H	8.2524	0.102296	-0.14044
H	4.36241	-0.250642	1.45909
H	4.10331	0.0682983	-1.07068
