18
  This energy is -1.3008 and Call times are: 23964
C	0.803603	-0.409649	0.687612
C	0.169218	0.77342	0.929018
C	-0.760011	0.944493	-0.142143
C	-0.611435	-0.149138	-0.94356
O	0.339304	-0.986632	-0.451918
H	1.59251	-0.942854	1.2431
H	0.338628	1.45706	1.77639
H	-1.45431	1.78714	-0.29041
H	-1.11546	-0.444313	-1.87848
C	4.33387	-0.968987	-0.0492986
C	5.40674	-0.66031	-0.858507
N	5.94343	0.537843	-0.522489
C	5.20631	0.970821	0.49132
N	4.22286	0.097825	0.814285
H	3.66387	-1.84316	-0.0275897
H	5.80317	-1.28067	-1.67878
H	5.34317	1.92009	1.0339
H	3.51137	0.211902	1.57719
