18
  This energy is -1.3354 and Call times are: 202769
C	-0.0266722	1.079	-0.348497
C	-0.188943	0.0303983	-1.20551
C	-0.0935683	-1.148	-0.404017
C	0.118565	-0.715476	0.87203
O	0.162252	0.641861	0.924385
H	-0.0249108	2.16827	-0.518041
H	-0.358767	0.0815863	-2.293
H	-0.174741	-2.19212	-0.74652
H	0.253031	-1.26583	1.81769
C	3.78814	0.142148	0.583974
C	4.04751	0.501362	-0.721719
N	5.31967	0.19072	-1.07046
C	5.84751	-0.359117	0.014755
N	4.96392	-0.411195	1.03953
H	2.88034	0.237933	1.20064
H	3.33951	0.979112	-1.41838
H	6.8765	-0.740744	0.113561
H	5.14083	-0.799175	1.9984
