18
  This energy is -0.782 and Call times are: 81558
C	-0.722715	0.802181	-0.34726
C	0.4031	0.480816	-1.047
C	1.04333	-0.55656	-0.302641
C	0.252233	-0.777544	0.78626
O	-0.830713	0.0435014	0.775127
H	-1.51686	1.54215	-0.539713
H	0.748098	0.929285	-1.99249
H	1.98342	-1.07232	-0.55625
H	0.348907	-1.48098	1.62951
C	6.56415	0.403105	-0.541307
C	6.35401	-0.874816	-0.0681229
N	5.1295	-0.989962	0.500922
C	4.58206	0.211955	0.381213
N	5.4075	1.08707	-0.24041
H	7.42617	0.858992	-1.05377
H	7.06402	-1.7158	-0.127127
H	3.57941	0.505832	0.731299
H	5.20497	2.09462	-0.452707
