18
  This energy is -0.9148 and Call times are: 163484
C	-0.707281	-0.838661	-0.287754
C	-1.11114	0.461533	-0.205506
C	0.0454115	1.20667	0.178243
C	1.05393	0.296043	0.296622
O	0.612072	-0.958082	0.0156579
H	-1.25495	-1.75926	-0.548155
H	-2.12208	0.856293	-0.395963
H	0.109489	2.29403	0.344478
H	2.1155	0.412231	0.57017
C	4.78939	0.115609	-0.845361
C	5.80956	-0.810763	-0.798265
N	6.55782	-0.657103	0.321115
C	6.00395	0.360725	0.965999
N	4.9343	0.861046	0.30334
H	3.99696	0.291274	-1.59017
H	6.01911	-1.58725	-1.55192
H	6.34151	0.780478	1.9273
H	4.33042	1.66385	0.606795
