18
  This energy is -1.5129 and Call times are: 140889
C	-0.866187	0.712622	0.168199
C	-0.685753	-0.408817	0.923309
C	0.49303	-1.03611	0.41627
C	0.928874	-0.242629	-0.603924
O	0.110685	0.829852	-0.769346
H	-1.6398	1.49741	0.197973
H	-1.3192	-0.759161	1.75403
H	0.955251	-1.96952	0.775702
H	1.79542	-0.330665	-1.27965
C	5.95409	0.701239	-0.69004
C	7.23383	0.250216	-0.93495
N	7.67439	-0.540962	0.073244
C	6.67177	-0.580614	0.940312
N	5.61154	0.152538	0.525599
H	5.28521	1.35212	-1.27527
H	7.84716	0.481511	-1.82105
H	6.66102	-1.13118	1.89477
H	4.70189	0.278908	1.03336
