18
  This energy is -1.0041 and Call times are: 207828
C	0.877362	0.557214	-0.454036
C	0.0478569	-0.22955	-1.19787
C	-0.918474	-0.751766	-0.284852
C	-0.594176	-0.238021	0.936323
O	0.500012	0.56359	0.851559
H	1.75955	1.15712	-0.731741
H	0.110205	-0.42278	-2.28087
H	-1.75432	-1.43039	-0.519194
H	-1.05655	-0.36473	1.929
C	4.81788	-1.1177	-0.34921
C	4.54685	-0.02587	-1.14645
N	4.47894	1.11083	-0.411728
C	4.70698	0.725638	0.836572
N	4.91716	-0.609022	0.926555
H	4.94295	-2.18506	-0.59136
H	4.39908	-0.037948	-2.23864
H	4.7314	1.37972	1.72303
H	5.11757	-1.15273	1.80147
