18
  This energy is -0.8239 and Call times are: 27290
C	-0.211981	0.550944	-0.968466
C	1.04984	0.196569	-0.590836
C	0.909692	-0.468859	0.665222
C	-0.425397	-0.462376	0.94427
O	-1.1254	0.156382	-0.042721
H	-0.586925	1.07953	-1.86024
H	1.98545	0.384866	-1.14154
H	1.71504	-0.899072	1.28201
H	-0.995342	-0.859665	1.80018
C	6.12682	-0.541124	0.953992
C	6.49412	0.697057	0.47114
N	5.79854	1.01078	-0.648802
C	5.00276	-0.0288306	-0.859929
N	5.16317	-0.991011	0.0792557
H	6.4715	-1.11481	1.82899
H	7.24855	1.36965	0.910801
H	4.28307	-0.137341	-1.68728
H	4.65103	-1.90549	0.131185
