18
  This energy is -0.6747 and Call times are: 167546
C	-0.62717	0.327683	-0.886387
C	0.490941	-0.44072	-1.02695
C	0.996852	-0.640202	0.293798
C	0.143234	0.0239096	1.12486
O	-0.854469	0.620794	0.421065
H	-1.33784	0.727074	-1.62847
H	0.916739	-0.828185	-1.96645
H	1.89289	-1.21308	0.581924
H	0.136488	0.145741	2.22047
C	5.30179	0.620503	0.91733
C	6.0961	-0.505637	0.962245
N	6.36593	-0.963298	-0.28445
C	5.74139	-0.124269	-1.09968
N	5.08537	0.848268	-0.423369
H	4.88899	1.25478	1.71785
H	6.47933	-0.99611	1.87187
H	5.73156	-0.175808	-2.20035
H	4.51966	1.62737	-0.840786
