18
  This energy is -0.9386 and Call times are: 119770
C	-0.581328	0.528908	-0.81775
C	-0.480157	1.02931	0.447057
C	0.317979	0.0945958	1.17466
C	0.63408	-0.894481	0.290252
O	0.0931424	-0.645481	-0.931385
H	-1.09749	0.908215	-1.71494
H	-0.923132	1.96298	0.829316
H	0.616864	0.15946	2.23322
H	1.22844	-1.81574	0.40545
C	4.80654	-0.479621	-0.896026
C	4.27348	0.183789	0.188813
N	5.24807	0.606577	1.0302
C	6.38144	0.206974	0.46946
N	6.16837	-0.452543	-0.693823
H	4.32909	-0.953277	-1.76851
H	3.20311	0.364943	0.379485
H	7.39551	0.370872	0.868254
H	6.90098	-0.864725	-1.32202
