18
  This energy is -0.7226 and Call times are: 85993
C	0.725567	-0.573957	-0.656146
C	0.690108	-0.724593	0.699002
C	-0.338028	0.15161	1.16303
C	-0.840088	0.760332	0.050481
O	-0.202207	0.329076	-1.0694
H	1.35596	-1.04539	-1.42791
H	1.32433	-1.38634	1.31051
H	-0.659446	0.304288	2.20585
H	-1.64025	1.50805	-0.0756318
C	5.34461	1.01671	-0.379505
C	4.77956	-0.236026	-0.491394
N	5.57943	-1.18347	0.0554833
C	6.63668	-0.521019	0.504931
N	6.54266	0.80864	0.266693
H	4.99076	2.00845	-0.703198
H	3.80905	-0.473206	-0.956925
H	7.5083	-0.960471	1.0162
H	7.24802	1.54144	0.525018
