18
  This energy is -0.7477 and Call times are: 200910
C	0.858328	-0.73154	-0.120517
C	-0.200863	-0.700359	-0.979305
C	-1.05904	0.337849	-0.504156
C	-0.448517	0.849453	0.603044
O	0.723589	0.208197	0.851981
H	1.75913	-1.36642	-0.0934151
H	-0.361711	-1.3439	-1.85912
H	-2.01756	0.659315	-0.942326
H	-0.741789	1.65914	1.29127
C	4.83658	-0.0147117	-1.11929
C	4.72676	-1.03657	-0.200108
N	5.25135	-0.676087	0.996289
C	5.68497	0.564687	0.819993
N	5.45802	1.00861	-0.438981
H	4.52682	0.054377	-2.17419
H	4.27839	-2.02748	-0.378759
H	6.17616	1.1942	1.57938
H	5.70785	1.9525	-0.823581
