18
  This energy is -1.0822 and Call times are: 117337
C	-0.370313	-0.991046	-0.408776
C	-1.21717	0.028578	-0.0869537
C	-0.387962	1.09103	0.386034
C	0.892416	0.626869	0.311494
O	0.921861	-0.643014	-0.171768
H	-0.560197	-2.00013	-0.809943
H	-2.31559	0.0321665	-0.173913
H	-0.715634	2.08216	0.738714
H	1.8563	1.09608	0.568443
C	4.40178	-0.717471	0.883963
C	4.62462	0.641089	0.960106
N	4.95075	1.15145	-0.252198
C	4.9303	0.113455	-1.07728
N	4.60468	-1.0362	-0.440209
H	4.12248	-1.4554	1.65273
H	4.55593	1.26217	1.86807
H	5.14585	0.139234	-2.15761
H	4.52246	-1.98884	-0.872604
