18
  This energy is -0.6938 and Call times are: 202512
C	-0.849294	-0.748802	0.0663041
C	0.0268563	-0.545384	1.09166
C	0.936513	0.456953	0.635631
C	0.535938	0.777566	-0.628141
O	-0.553282	0.0507884	-0.992017
H	-1.71441	-1.42481	-0.0328866
H	0.0320513	-1.0505	2.07091
H	1.78723	0.8835	1.191
H	0.936518	1.49621	-1.36185
C	5.8063	-0.091096	1.16854
C	4.9472	0.737177	0.477851
N	5.09093	0.583313	-0.860871
C	6.0356	-0.336913	-1.00016
N	6.4989	-0.774938	0.19445
H	5.96841	-0.237403	2.24829
H	4.22623	1.44303	0.921499
H	6.42594	-0.726579	-1.95411
H	7.24378	-1.49776	0.349147
