18
  This energy is -1.0455 and Call times are: 78267
C	0.849104	0.51756	-0.545487
C	-0.12327	-0.178861	-1.20112
C	-0.998781	-0.676006	-0.187989
C	-0.484133	-0.239497	0.997325
O	0.644416	0.490967	0.797796
H	1.72872	1.06953	-0.91541
H	-0.214824	-0.32757	-2.28906
H	-1.90412	-1.28681	-0.33422
H	-0.822699	-0.379252	2.03708
C	4.86614	0.958262	0.426406
C	4.33906	-0.312843	0.339126
N	5.23163	-1.17568	-0.204316
C	6.30835	-0.442647	-0.453225
N	6.13786	0.850831	-0.0906837
H	4.44046	1.90025	0.807192
H	3.33072	-0.622807	0.65854
H	7.24907	-0.80268	-0.900047
H	6.84055	1.62446	-0.185446
