18
  This energy is -0.4831 and Call times are: 150717
C	-0.991526	-0.537928	-0.117945
C	-0.904775	0.819209	-0.0129256
C	0.486748	1.11299	0.119266
C	1.1275	-0.0905589	0.0833563
O	0.240081	-1.1097	-0.0610735
H	-1.85882	-1.20816	-0.23555
H	-1.73718	1.54101	-0.0271212
H	0.947754	2.10785	0.227941
H	2.19637	-0.352031	0.149683
C	7.17334	-0.201988	-0.863851
C	7.34694	-0.460446	0.479357
N	6.25067	-0.103052	1.19139
C	5.40022	0.375304	0.293318
N	5.90992	0.337088	-0.960609
H	7.83731	-0.358312	-1.72886
H	8.24356	-0.898397	0.947459
H	4.39099	0.766602	0.499637
H	5.43345	0.657133	-1.83913
