18
  This energy is -0.8546 and Call times are: 53357
C	1.09196	-0.302347	-0.0510641
C	0.586792	0.735858	-0.777223
C	-0.80149	0.80403	-0.448372
C	-1.02213	-0.198533	0.449714
O	0.123305	-0.884388	0.703884
H	2.10955	-0.721043	0.0156451
H	1.13662	1.38823	-1.4745
H	-1.54206	1.51977	-0.839982
H	-1.93619	-0.522374	0.973989
C	6.33503	-0.559511	-0.612185
C	5.81486	0.690449	-0.873282
N	4.8671	1.02493	0.0357712
C	4.79955	-0.0135812	0.857695
N	5.66505	-0.994965	0.509289
H	7.10874	-1.15026	-1.12787
H	6.10645	1.35693	-1.70131
H	4.13381	-0.107627	1.73072
H	5.80001	-1.91272	0.999978
