18
  This energy is -0.8158 and Call times are: 189028
C	0.373188	0.815196	0.694684
C	1.18486	0.201173	-0.213355
C	0.363913	-0.751852	-0.890042
C	-0.876959	-0.636077	-0.335781
O	-0.889492	0.316266	0.633703
H	0.570913	1.61099	1.43149
H	2.2544	0.399461	-0.389025
H	0.670388	-1.43939	-1.69469
H	-1.8215	-1.16633	-0.540523
C	6.46551	0.63165	0.923317
C	7.25404	0.0616348	-0.0536415
N	6.50033	-0.596428	-0.96764
C	5.24899	-0.43527	-0.559255
N	5.17525	0.298054	0.576699
H	6.72265	1.23108	1.81107
H	8.35329	0.113412	-0.115384
H	4.34867	-0.833083	-1.05463
H	4.30165	0.562172	1.0947
