18
  This energy is -1.3755 and Call times are: 165438
C	-0.0978434	0.616262	0.947127
C	-0.47675	-0.692527	0.884875
C	-0.203043	-1.11567	-0.451594
C	0.31896	-0.0281075	-1.08806
O	0.390419	1.03848	-0.248842
H	-0.124363	1.3466	1.77245
H	-0.905937	-1.29912	1.69847
H	-0.377822	-2.11558	-0.880238
H	0.673277	0.113469	-2.12231
C	3.799	0.0154346	0.415511
C	4.25902	0.625922	-0.73202
N	5.58397	0.401636	-0.907301
C	5.94453	-0.345152	0.127555
N	4.90393	-0.60532	0.954015
H	2.79696	-0.0200154	0.871811
H	3.65865	1.2242	-1.43662
H	6.95764	-0.729019	0.328781
H	4.93323	-1.17195	1.83681
