18
  This energy is -1.1145 and Call times are: 60114
C	0.832978	0.187612	0.74656
C	0.539735	-1.05908	0.27736
C	-0.551709	-0.889306	-0.628204
C	-0.829083	0.446141	-0.63244
O	0.00687719	1.119	0.201496
H	1.59518	0.539258	1.46115
H	1.04166	-2.0035	0.542364
H	-1.06427	-1.67593	-1.20491
H	-1.58551	1.03401	-1.17785
C	5.93384	0.68069	0.222915
C	5.04226	0.171717	1.14333
N	4.08566	-0.572547	0.537114
C	4.38267	-0.525474	-0.754472
N	5.48859	0.217889	-0.995178
H	6.82397	1.31821	0.344474
H	5.07209	0.32819	2.23396
H	3.82381	-1.01727	-1.56691
H	5.92391	0.405872	-1.93135
