18
  This energy is -1.1478 and Call times are: 132603
C	0.541673	0.922975	-0.375643
C	-0.301784	0.956441	0.695727
C	-0.781755	-0.379083	0.857347
C	-0.18923	-1.11077	-0.129526
O	0.622298	-0.331588	-0.89196
H	1.13683	1.7129	-0.86253
H	-0.560057	1.8336	1.31053
H	-1.48616	-0.743285	1.62238
H	-0.261904	-2.1791	-0.391534
C	4.28047	0.732468	0.0551272
C	4.24056	-0.645608	0.0337592
N	5.48854	-1.1696	-0.0331362
C	6.29958	-0.120585	-0.0531921
N	5.61937	1.04914	-0.00183062
H	3.47761	1.48511	0.105165
H	3.33363	-1.27118	0.0654128
H	7.39983	-0.152224	-0.104916
H	6.03309	2.01355	-0.00482633
