18
  This energy is -0.9954 and Call times are: 211735
C	0.100462	-0.694711	-0.89089
C	-0.183719	-1.1509	0.362706
C	-0.227767	0.00604477	1.19916
C	0.033383	1.0671	0.382862
O	0.236324	0.657515	-0.897008
H	0.230316	-1.22358	-1.84937
H	-0.346039	-2.19717	0.667791
H	-0.431031	0.0351548	2.28171
H	0.101948	2.14802	0.588214
C	6.04273	0.649717	0.272435
C	6.03385	-0.672697	-0.117804
N	4.77099	-1.10414	-0.353486
C	3.99936	-0.0533748	-0.110382
N	4.7189	1.02875	0.270209
H	6.86983	1.32535	0.542558
H	6.91605	-1.32323	-0.233524
H	2.90118	-0.0215039	-0.195446
H	4.34044	1.97601	0.516643
