18
  This energy is -0.8574 and Call times are: 16178
C	-0.933454	0.569796	0.300661
C	-0.870139	-0.792496	0.323567
C	0.446346	-1.13017	-0.115709
C	1.0713	0.0555894	-0.368271
O	0.243393	1.10422	-0.119377
H	-1.74716	1.26827	0.55615
H	-1.67023	-1.48966	0.620054
H	0.869916	-2.14119	-0.227525
H	2.08936	0.284228	-0.72399
C	6.35869	0.351242	-0.585358
C	5.67609	1.05607	0.383368
N	4.61645	0.349432	0.846327
C	4.64157	-0.789444	0.167391
N	5.67328	-0.836728	-0.708363
H	7.25382	0.602587	-1.1762
H	5.92921	2.06181	0.756539
H	3.92841	-1.62291	0.272114
H	5.9066	-1.62766	-1.3574
