18
  This energy is -1.0141 and Call times are: 163068
C	0.650803	-0.924704	-0.0881978
C	-0.0300082	-0.406634	-1.15049
C	-0.723748	0.737224	-0.650061
C	-0.405629	0.817172	0.673866
O	0.432897	-0.189864	1.03409
H	1.31517	-1.80019	-0.0022348
H	-0.0424343	-0.791381	-2.18292
H	-1.381	1.41568	-1.21734
H	-0.706532	1.53325	1.45613
C	4.1656	0.298721	-0.0948668
C	5.07821	0.792569	0.813097
N	6.29709	0.226801	0.637724
C	6.14123	-0.614834	-0.375184
N	4.87371	-0.608023	-0.851562
H	3.09798	0.520955	-0.250873
H	4.87901	1.54697	1.59158
H	6.92224	-1.2604	-0.808186
H	4.50133	-1.18378	-1.64598
