18
  This energy is -2.4457 and Call times are: 67228
C	-0.622827	0.156729	0.934838
C	-0.1562	-1.07049	0.565284
C	0.57281	-0.863279	-0.645388
C	0.487316	0.472268	-0.908783
O	-0.239267	1.1106	0.0460056
H	-1.23045	0.478807	1.79642
H	-0.309936	-2.02582	1.09235
H	1.09668	-1.62601	-1.24363
H	0.894043	1.08266	-1.73173
C	4.37035	-0.21833	-1.10849
C	5.65871	-0.193685	-0.617928
N	5.67175	0.0912533	0.706893
C	4.39632	0.2428	1.03696
N	3.57231	0.0660977	-0.0229381
H	3.97801	-0.411692	-2.11954
H	6.57909	-0.376397	-1.19619
H	4.01021	0.483593	2.04053
H	2.52505	0.133015	-0.0185851
