18
  This energy is -0.9137 and Call times are: 202897
C	0.481062	0.999663	-0.235913
C	1.21274	-0.133798	-0.035204
C	0.265239	-1.16854	0.232494
C	-0.961806	-0.576051	0.17174
O	-0.848834	0.747957	-0.113308
H	0.7839	2.03353	-0.469717
H	2.30965	-0.231438	-0.0719735
H	0.481449	-2.22796	0.444548
H	-1.97733	-0.981926	0.310411
C	5.66042	-1.13989	0.13385
C	5.09405	-0.544969	-0.973594
N	4.93323	0.787218	-0.78405
C	5.39806	1.01787	0.436341
N	5.84798	-0.112341	1.03115
H	5.93414	-2.18684	0.340033
H	4.79858	-1.05311	-1.90598
H	5.4326	1.99567	0.943239
H	6.26099	-0.190892	1.99266
