18
  This energy is -1.3763 and Call times are: 7161
C	-0.339214	-0.454408	0.982267
C	-1.10112	0.440008	0.289521
C	-0.346414	0.776884	-0.875407
C	0.810053	0.0585889	-0.791695
O	0.831346	-0.698885	0.336486
H	-0.51526	-0.982166	1.93397
H	-2.09489	0.824023	0.570651
H	-0.638701	1.47402	-1.67707
H	1.6841	-0.000440171	-1.46088
C	4.67542	1.11959	0.354873
C	5.33017	0.54427	-0.713517
N	5.01058	-0.767186	-0.833767
C	4.1608	-1.00456	0.156258
N	3.92645	0.101499	0.901444
H	4.68899	2.14716	0.751669
H	6.02744	1.05198	-1.39974
H	3.6802	-1.97034	0.381042
H	3.29459	0.170381	1.73647
