18
  This energy is -1.2586 and Call times are: 174340
C	0.780554	-0.354198	0.742752
C	0.342993	-1.13607	-0.285641
C	-0.622463	-0.352847	-0.988902
C	-0.68965	0.838499	-0.32818
O	0.160505	0.855114	0.731995
H	1.5196	-0.540107	1.5393
H	0.667537	-2.16149	-0.524988
H	-1.1953	-0.650265	-1.88193
H	-1.29394	1.74237	-0.510146
C	5.39832	-0.152542	0.934971
C	5.36374	0.942529	0.0978512
N	4.43762	0.782208	-0.878423
C	3.89971	-0.407795	-0.647835
N	4.44519	-1.01128	0.434686
H	6.01324	-0.374117	1.82172
H	5.99044	1.84542	0.180821
H	3.10303	-0.8854	-1.24065
H	4.19055	-1.95377	0.819561
