18
  This energy is -0.7442 and Call times are: 80412
C	0.220123	0.610533	0.930159
C	1.18522	-0.0966736	0.275315
C	0.529793	-0.723366	-0.828221
C	-0.777966	-0.343799	-0.750315
O	-0.984965	0.470965	0.317545
H	0.262613	1.24424	1.8312
H	2.25168	-0.169705	0.542564
H	0.98704	-1.3789	-1.5867
H	-1.64744	-0.582076	-1.38474
C	4.97669	0.820359	0.185088
C	5.504	0.436518	-1.02972
N	6.43365	-0.537007	-0.873172
C	6.48288	-0.75628	0.433778
N	5.62309	0.0373729	1.11529
H	4.21267	1.57027	0.444799
H	5.23031	0.844589	-2.01634
H	7.13063	-1.48654	0.945031
H	5.47676	0.0532326	2.15433
