18
  This energy is -0.8208 and Call times are: 116666
C	-0.239959	-1.10844	-0.0133608
C	-1.09673	-0.169605	-0.508243
C	-0.450984	1.08966	-0.314877
C	0.743384	0.809175	0.281098
O	0.888882	-0.528404	0.472734
H	-0.316049	-2.20634	0.0505692
H	-2.08437	-0.346131	-0.96376
H	-0.838413	2.08361	-0.590662
H	1.56578	1.46342	0.614077
C	6.2972	0.433522	0.843249
C	6.52293	0.468929	-0.516506
N	5.51152	-0.124976	-1.19536
C	4.66157	-0.527296	-0.260297
N	5.09025	-0.213992	0.985361
H	6.89024	0.810702	1.69153
H	7.39747	0.912369	-1.01989
H	3.71022	-1.05596	-0.432586
H	4.59715	-0.424274	1.88752
