18
  This energy is -0.6011 and Call times are: 102738
C	-0.0392412	1.01395	-0.506725
C	1.0827	0.238317	-0.510736
C	0.744047	-0.942872	0.217429
C	-0.554946	-0.784777	0.60213
O	-1.04914	0.40464	0.168452
H	-0.244069	2.00557	-0.942594
H	2.05158	0.474289	-0.979443
H	1.39815	-1.80481	0.425546
H	-1.23098	-1.43666	1.17943
C	6.73615	0.030416	-0.798706
C	7.60932	-1.01042	-0.563415
N	8.47808	-0.704206	0.430568
C	8.14513	0.521942	0.810473
N	7.10053	1.00857	0.099414
H	5.90885	0.140586	-1.51772
H	7.62802	-1.97685	-1.09306
H	8.63308	1.11	1.60439
H	6.6534	1.95138	0.211013
