18
  This energy is -1.296 and Call times are: 135099
C	-0.485691	-0.177843	1.00939
C	0.152048	0.987695	0.700876
C	0.624143	0.83248	-0.63821
C	0.233219	-0.414207	-1.02978
O	-0.445782	-1.04536	-0.0359906
H	-1.00127	-0.508705	1.92589
H	0.277449	1.8684	1.35105
H	1.18835	1.56891	-1.23271
H	0.374515	-0.961036	-1.97649
C	3.85036	0.433078	0.689678
C	4.23526	0.907769	-0.546311
N	5.24774	0.167984	-1.06023
C	5.49004	-0.762111	-0.146531
N	4.6737	-0.644783	0.927435
H	3.0747	0.774625	1.39341
H	3.80054	1.77079	-1.07646
H	6.25393	-1.55347	-0.213221
H	4.66887	-1.25805	1.77898
