18
  This energy is -1.0757 and Call times are: 59326
C	1.00846	-0.505985	0.115707
C	0.853418	0.845368	0.216608
C	-0.538353	1.09537	0.0151406
C	-1.11094	-0.12528	-0.191089
O	-0.180948	-1.1146	-0.133098
H	1.90075	-1.14783	0.199994
H	1.6402	1.59131	0.413188
H	-1.04521	2.07369	0.0244575
H	-2.15516	-0.419267	-0.387125
C	5.32099	0.965696	0.672372
C	4.57065	0.766973	-0.467212
N	4.79266	-0.463424	-0.990035
C	5.67736	-1.02587	-0.177886
N	6.02746	-0.204338	0.84001
H	5.39959	1.82816	1.3532
H	3.87308	1.48935	-0.921533
H	6.10239	-2.03717	-0.282083
H	6.70751	-0.417981	1.61018
