18
  This energy is -1.698 and Call times are: 101506
C	-0.110019	1.08458	-0.313012
C	0.380234	0.722646	0.907245
C	0.365451	-0.705473	0.926629
C	-0.13253	-1.09017	-0.283493
O	-0.428261	-0.00986275	-1.05323
H	-0.27952	2.07399	-0.768646
H	0.718357	1.39399	1.71289
H	0.689833	-1.36156	1.75029
H	-0.3226	-2.08785	-0.712156
C	4.44887	0.45805	-1.05515
C	4.85817	-0.764533	-0.566371
N	4.38753	-0.971907	0.687423
C	3.68891	0.117883	0.975367
N	3.69554	1.01006	-0.0432441
H	4.63419	0.957661	-2.0193
H	5.48465	-1.5007	-1.09594
H	3.15235	0.314287	1.91758
H	3.21782	1.94429	-0.0591294
