18
  This energy is -0.9748 and Call times are: 108036
C	1.01355	0.223831	-0.457185
C	0.694678	0.577295	0.821
C	-0.646723	0.131851	1.02677
C	-1.02915	-0.454495	-0.14384
O	-0.0275415	-0.407276	-1.06121
H	1.9352	0.362751	-1.04584
H	1.33939	1.09934	1.5462
H	-1.24883	0.239855	1.94323
H	-1.97392	-0.935366	-0.446185
C	5.73859	1.16196	0.125407
C	6.54895	0.171736	0.639121
N	6.09266	-1.05827	0.299442
C	5.00336	-0.831971	-0.422257
N	4.74766	0.49104	-0.555851
H	5.79506	2.25997	0.194121
H	7.45469	0.322777	1.24877
H	4.35558	-1.59874	-0.876863
H	3.94708	0.923346	-1.07876
