18
  This energy is -2.2061 and Call times are: 100922
C	0.251706	-0.689844	-0.864385
C	-0.498369	-1.09616	0.199885
C	-0.595335	0.0362522	1.06496
C	0.104044	1.0346	0.452966
O	0.628136	0.608725	-0.726428
H	0.582858	-1.22212	-1.77118
H	-0.939157	-2.09328	0.359723
H	-1.12625	0.0916965	2.02889
H	0.300278	2.07796	0.749846
C	3.95698	1.03471	0.343813
C	5.24757	0.784188	-0.0718315
N	5.41209	-0.5216	-0.394883
C	4.22806	-1.07904	-0.180467
N	3.31701	-0.182058	0.26562
H	3.46508	1.96182	0.678543
H	6.06295	1.52224	-0.144404
H	3.97332	-2.14008	-0.333857
H	2.31419	-0.376464	0.506098
