18
  This energy is -0.8528 and Call times are: 114573
C	0.188689	-1.05476	-0.371872
C	0.998775	-0.00814116	-0.70162
C	0.442996	1.13619	-0.0522021
C	-0.657655	0.687835	0.617068
O	-0.828037	-0.647858	0.432935
H	0.227733	-2.12284	-0.641925
H	1.89754	-0.0388555	-1.3383
H	0.825173	2.16911	-0.0852565
H	-1.39192	1.21197	1.25061
C	5.7125	1.10925	0.330923
C	4.80612	0.688326	-0.619049
N	4.82302	-0.660729	-0.746626
C	5.7364	-1.07515	0.120901
N	6.30137	-0.0457004	0.795169
H	5.9715	2.11537	0.697223
H	4.14029	1.33388	-1.21468
H	6.03076	-2.12134	0.302764
H	7.04609	-0.114282	1.53134
