18
  This energy is -1.0739 and Call times are: 68366
C	-0.718308	0.114665	-0.870222
C	-0.211	1.18618	-0.19579
C	0.64063	0.644545	0.814889
C	0.578561	-0.710148	0.668848
O	-0.246744	-1.05142	-0.355561
H	-1.41437	0.0500944	-1.72262
H	-0.41594	2.25117	-0.390478
H	1.22727	1.20608	1.55962
H	1.06746	-1.52836	1.22271
C	4.08267	0.0593956	-0.364883
C	5.12265	0.88017	-0.746859
N	6.27614	0.526739	-0.129557
C	5.95298	-0.509355	0.632479
N	4.64169	-0.829807	0.525625
H	3.01979	0.0456097	-0.654089
H	5.06136	1.72104	-1.45681
H	6.63769	-1.07068	1.28846
H	4.14541	-1.60747	1.02584
