18
  This energy is -1.0805 and Call times are: 101409
C	-0.260991	-1.00679	-0.452384
C	0.960213	-0.747322	0.0968984
C	0.904654	0.6053	0.552361
C	-0.345596	1.05299	0.241198
O	-1.07103	0.0815663	-0.372882
H	-0.671959	-1.91357	-0.925786
H	1.81446	-1.43904	0.173641
H	1.70726	1.17084	1.05245
H	-0.833869	2.02825	0.401527
C	6.14883	0.712497	0.396144
C	4.97745	1.08762	-0.226996
N	4.2283	0.00585349	-0.551126
C	4.93224	-1.0364	-0.130667
N	6.09824	-0.662634	0.447551
H	6.98688	1.30697	0.793394
H	4.65945	2.11944	-0.448515
H	4.64055	-2.09517	-0.220982
H	6.82522	-1.29911	0.857008
