18
  This energy is -0.621 and Call times are: 97189
C	0.377142	-0.295009	1.02817
C	1.0268	-0.649417	-0.117565
C	0.257213	-0.101556	-1.18887
C	-0.794795	0.539279	-0.603224
O	-0.737436	0.431299	0.750312
H	0.602969	-0.495097	2.08846
H	1.95486	-1.23764	-0.200034
H	0.469944	-0.180543	-2.26711
H	-1.63978	1.10149	-1.03355
C	5.23523	-0.705508	-0.373532
C	6.37371	-0.353384	-1.06709
N	7.15524	0.476503	-0.334281
C	6.50407	0.638603	0.809544
N	5.34063	-0.053745	0.83489
H	4.38584	-1.3522	-0.645321
H	6.6452	-0.683271	-2.08312
H	6.83414	1.25343	1.66235
H	4.65038	-0.0875956	1.62462
