18
  This energy is -1.0407 and Call times are: 74326
C	0.311056	1.08425	-0.118564
C	0.295342	0.210191	-1.16554
C	-0.145247	-1.03717	-0.626948
C	-0.359877	-0.815252	0.701607
O	-0.0862034	0.474952	1.02946
H	0.581386	2.15142	-0.0610923
H	0.566782	0.422532	-2.21212
H	-0.283331	-1.98425	-1.17291
H	-0.702584	-1.48366	1.50848
C	5.84646	0.806288	-0.136025
C	5.90944	-0.338464	0.629952
N	4.75188	-1.03938	0.557187
C	3.97374	-0.332141	-0.250858
N	4.58821	0.789708	-0.695242
H	6.5834	1.60492	-0.316718
H	6.76939	-0.671204	1.2338
H	2.9452	-0.589994	-0.550605
H	4.18327	1.5097	-1.34247
