18
  This energy is -1.6046 and Call times are: 157355
C	0.229284	-1.09414	0.191527
C	0.401892	-0.133951	1.14474
C	0.0122903	1.09729	0.534509
C	-0.364005	0.780797	-0.737737
O	-0.237873	-0.553262	-0.964425
H	0.40047	-2.18298	0.211197
H	0.766949	-0.278226	2.17431
H	0.0152163	2.09744	0.996873
H	-0.73491	1.40511	-1.56714
C	4.72129	-0.182338	-1.11742
C	3.5562	0.409363	-0.677421
N	3.51329	0.456895	0.676245
C	4.64744	-0.103189	1.07451
N	5.4102	-0.505114	0.0303637
H	5.0964	-0.389647	-2.13223
H	2.74579	0.802825	-1.31246
H	4.96948	-0.2443	2.11883
H	6.34776	-0.973396	0.0847877
