18
  This energy is -1.0172 and Call times are: 92215
C	0.251734	0.301602	-1.06399
C	-0.970484	-0.19294	-0.71472
C	-0.901291	-0.451419	0.688319
C	0.3571	-0.0920116	1.07257
O	1.075	0.370068	0.0151623
H	0.654882	0.636782	-2.03372
H	-1.83413	-0.359054	-1.37851
H	-1.70063	-0.857788	1.32865
H	0.856524	-0.11648	2.05503
C	5.14382	0.312186	-1.10824
C	5.73166	-0.705165	-0.386726
N	5.20827	-0.785117	0.860744
C	4.29919	0.178968	0.912932
N	4.22246	0.869021	-0.24962
H	5.31038	0.667469	-2.13759
H	6.52407	-1.38292	-0.743931
H	3.66156	0.423135	1.77783
H	3.58295	1.67471	-0.457333
