18
  This energy is -1.5648 and Call times are: 50899
C	-0.762063	0.702623	0.460415
C	-0.3001	-0.402705	1.1125
C	0.630246	-1.02133	0.222626
C	0.654676	-0.239426	-0.894693
O	-0.189609	0.817852	-0.766789
H	-1.4889	1.47634	0.757602
H	-0.585816	-0.747795	2.11917
H	1.20928	-1.94143	0.402159
H	1.22232	-0.326468	-1.83568
C	4.79157	-1.06765	0.303154
C	4.86424	0.0850311	1.05628
N	4.31425	1.13423	0.398106
C	3.90193	0.63435	-0.758934
N	4.16679	-0.689415	-0.864229
H	5.12898	-2.09601	0.508471
H	5.30368	0.17842	2.06277
H	3.40005	1.19338	-1.56505
H	3.9395	-1.3095	-1.67977
