18
  This energy is -1.35 and Call times are: 140953
C	-0.336149	1.0774	0.112327
C	-1.09313	0.0274523	0.542406
C	-0.344555	-1.14818	0.229913
C	0.803785	-0.71286	-0.363539
O	0.82569	0.643654	-0.443558
H	-0.510305	2.16549	0.143521
H	-2.07968	0.0759661	1.03072
H	-0.635317	-2.1924	0.427767
H	1.67119	-1.26054	-0.767147
C	4.97299	-1.01514	-0.162081
C	4.38707	-0.572851	1.00506
N	3.81308	0.642719	0.83352
C	4.04203	0.953357	-0.435223
N	4.73791	-0.0141744	-1.07805
H	5.52228	-1.94048	-0.3978
H	4.36823	-1.10907	1.96786
H	3.72241	1.87659	-0.944849
H	5.04068	-0.00379724	-2.08278
