18
  This energy is -1.793 and Call times are: 36674
C	-0.234058	-0.696841	0.86373
C	-0.449826	-1.04732	-0.436647
C	-0.0381842	0.0754704	-1.21768
C	0.392793	1.01296	-0.325627
O	0.280274	0.558154	0.95011
H	-0.402778	-1.24366	1.80595
H	-0.857922	-2.00086	-0.808562
H	-0.0636634	0.165562	-2.31555
H	0.796832	2.0284	-0.47013
C	4.74015	0.766464	-0.499803
C	4.2624	-0.403029	-1.05223
N	3.42788	-1.04222	-0.196935
C	3.38808	-0.27219	0.881997
N	4.16268	0.830448	0.748642
H	5.42729	1.53217	-0.893602
H	4.50489	-0.79705	-2.05263
H	2.80798	-0.468603	1.79804
H	4.29762	1.58948	1.46063
