18
  This energy is -0.7913 and Call times are: 86281
C	0.152755	0.699782	-0.879415
C	-0.839571	-0.235643	-0.854096
C	-0.709347	-0.910002	0.398261
C	0.351062	-0.327137	1.02769
O	0.889574	0.657967	0.261795
H	0.435603	1.44515	-1.64078
H	-1.58816	-0.431164	-1.63862
H	-1.3369	-1.73233	0.777795
H	0.815105	-0.520073	2.00885
C	5.66045	0.221934	0.870379
C	4.31733	-0.06271	0.99752
N	3.74411	-0.265793	-0.21355
C	4.72788	-0.107738	-1.08868
N	5.90327	0.187493	-0.484626
H	6.4348	0.439316	1.62314
H	3.75162	-0.125181	1.94141
H	4.64254	-0.196961	-2.18366
H	6.82412	0.357722	-0.958255
