18
  This energy is -1.7133 and Call times are: 114074
C	0.768606	-0.0319647	-0.833441
C	0.502449	-1.11155	-0.0434848
C	-0.506206	-0.685681	0.873777
C	-0.767383	0.616551	0.563372
O	0.00215756	1.03218	-0.476853
H	1.47123	0.105071	-1.67176
H	0.96955	-2.10785	-0.100941
H	-0.976643	-1.28614	1.66891
H	-1.4682	1.34614	1.00133
C	4.47807	0.60823	-0.968415
C	4.36793	-0.761469	-0.854662
N	4.03129	-1.12144	0.407719
C	3.93296	0.0206027	1.07458
N	4.19308	1.09229	0.288825
H	4.73065	1.25129	-1.82644
H	4.52534	-1.49641	-1.66085
H	3.67346	0.129368	2.13997
H	4.18013	2.09996	0.581566
