18
  This energy is -0.407 and Call times are: 67438
C	1.0076	0.351216	0.384425
C	-0.0718531	0.193229	1.20307
C	-1.13699	-0.254877	0.363554
C	-0.614401	-0.331164	-0.894003
O	0.694264	0.0354049	-0.899746
H	2.04008	0.677827	0.590765
H	-0.113835	0.374101	2.28918
H	-2.16902	-0.490517	0.669329
H	-1.06397	-0.628048	-1.85577
C	7.53951	-0.288801	0.0566528
C	6.88782	0.30395	-1.00405
N	5.57508	0.494082	-0.72644
C	5.41299	0.0210819	0.50182
N	6.56819	-0.462123	1.01722
H	8.59067	-0.589518	0.191416
H	7.34133	0.597831	-1.96468
H	4.46965	0.00395919	1.07108
H	6.69899	-0.887709	1.96749
