18
  This energy is -1.3009 and Call times are: 173892
C	-0.936436	0.20306	0.606841
C	-0.250314	-0.972544	0.693822
C	0.851214	-0.849952	-0.207136
C	0.740981	0.389745	-0.765145
O	-0.345108	1.0467	-0.279513
H	-1.84765	0.557178	1.1163
H	-0.495311	-1.83912	1.32874
H	1.63008	-1.60258	-0.409655
H	1.36244	0.914437	-1.50928
C	4.70647	-0.357783	0.951213
C	5.84701	0.416731	0.930372
N	6.26365	0.638878	-0.339892
C	5.38493	0.00459112	-1.10418
N	4.42645	-0.611924	-0.372867
H	4.09468	-0.733551	1.78671
H	6.37674	0.819225	1.80914
H	5.39626	-0.0406981	-2.20511
H	3.62307	-1.17604	-0.743829
