18
  This energy is -1.161 and Call times are: 43786
C	0.088881	-0.831691	-0.766023
C	-0.612351	-0.979429	0.394503
C	-0.492984	0.265399	1.08463
C	0.270652	1.06394	0.284905
O	0.634815	0.410082	-0.849494
H	0.272335	-1.52557	-1.60276
H	-1.15884	-1.87515	0.73084
H	-0.928528	0.526736	2.06243
H	0.620193	2.10212	0.408405
C	5.25924	0.16389	-0.787362
C	4.11092	-0.579908	-0.958447
N	3.3401	-0.551954	0.155807
C	4.00768	0.206303	1.01488
N	5.17131	0.661962	0.493411
H	6.10457	0.367231	-1.46383
H	3.8248	-1.13622	-1.86591
H	3.68998	0.460144	2.03902
H	5.87286	1.27741	0.973327
