18
  This energy is -1.8331 and Call times are: 162490
C	-0.891769	0.573633	-0.402608
C	-0.581545	-0.685341	-0.825834
C	0.588242	-1.06488	-0.0994282
C	0.889591	-0.00433636	0.703569
O	-0.00384622	1.00519	0.531396
H	-1.70721	1.25966	-0.684888
H	-1.12222	-1.28645	-1.57446
H	1.13487	-2.01877	-0.172861
H	1.7018	0.153597	1.43201
C	4.19764	0.339787	-1.0086
C	5.20873	0.985589	-0.329065
N	5.54613	0.314013	0.798615
C	4.74738	-0.744392	0.818589
N	3.91575	-0.774083	-0.249636
H	3.67615	0.585827	-1.94724
H	5.70083	1.92408	-0.632268
H	4.72956	-1.52908	1.59201
H	3.19379	-1.50614	-0.459684
