18
  This energy is -1.0678 and Call times are: 111294
C	-0.469561	-0.818798	-0.628875
C	0.567414	-0.0557755	-1.07927
C	0.87584	0.849965	-0.0187837
C	0.00011258	0.560471	0.986039
O	-0.828889	-0.456119	0.630633
H	-1.0321	-1.6404	-1.10191
H	1.06521	-0.123915	-2.05991
H	1.66031	1.6237	-0.0137123
H	-0.133285	0.999115	1.98856
C	4.44518	-0.860014	0.27517
C	4.4158	0.442549	0.726401
N	5.43911	1.16298	0.206466
C	6.10081	0.310594	-0.564387
N	5.54094	-0.922319	-0.556474
H	3.78588	-1.7184	0.480177
H	3.67456	0.875415	1.41781
H	7.00195	0.536775	-1.15686
H	5.87745	-1.76511	-1.08346
