18
  This energy is -1.1674 and Call times are: 149500
C	-0.112291	0.960916	0.591973
C	-1.08258	0.504807	-0.251166
C	-0.579978	-0.712797	-0.803389
C	0.653072	-0.893262	-0.248957
O	0.954838	0.119453	0.605652
H	-0.0611076	1.85815	1.23041
H	-2.05471	0.97829	-0.462984
H	-1.08495	-1.37107	-1.5285
H	1.40357	-1.6902	-0.378886
C	4.14347	0.11767	-0.893813
C	5.15022	0.991371	-0.541345
N	5.83034	0.542045	0.541269
C	5.24773	-0.606039	0.859216
N	4.2251	-0.905828	0.023779
H	3.39952	0.150721	-1.7056
H	5.39803	1.9379	-1.04881
H	5.53003	-1.26729	1.69425
H	3.61136	-1.75596	0.0668361
