18
  This energy is -1.6897 and Call times are: 6341
C	-0.78769	0.779566	0.241296
C	-0.236305	-0.0219162	1.19732
C	0.699317	-0.857851	0.514718
C	0.637085	-0.493403	-0.798171
O	-0.265917	0.505268	-0.983255
H	-1.55024	1.57324	0.303407
H	-0.465451	-0.024235	2.27508
H	1.33983	-1.63717	0.958015
H	1.17637	-0.862851	-1.68583
C	4.35041	0.80603	-0.856077
C	4.53318	1.01997	0.493727
N	4.40454	-0.133638	1.19312
C	4.14298	-1.05973	0.280668
N	4.09985	-0.543177	-0.970294
H	4.37994	1.49542	-1.7148
H	4.75555	1.98605	0.975481
H	3.97446	-2.1314	0.473935
H	3.91144	-1.07008	-1.85806
