18
  This energy is -0.7686 and Call times are: 19669
C	0.590286	-0.17762	0.952058
C	-0.672567	-0.661449	0.774614
C	-1.07463	-0.236391	-0.528379
C	-0.0219748	0.469662	-1.03215
O	1.00345	0.515647	-0.141418
H	1.29125	-0.256864	1.79918
H	-1.26186	-1.25784	1.48956
H	-2.03763	-0.437691	-1.02456
H	0.119562	0.981845	-1.99801
C	5.14938	-0.970209	0.490639
C	4.5248	-0.130177	-0.406799
N	5.33812	0.892442	-0.766347
C	6.46298	0.687593	-0.0945184
N	6.39909	-0.422974	0.677589
H	4.80448	-1.88808	0.99273
H	3.50189	-0.243654	-0.801301
H	7.36469	1.31991	-0.131086
H	7.15712	-0.79607	1.30004
