18
  This energy is -1.6288 and Call times are: 129984
C	0.730938	-0.224263	-0.837757
C	-0.419422	-0.935734	-0.662099
C	-1.06281	-0.363649	0.477591
C	-0.248813	0.646914	0.897772
O	0.851272	0.746261	0.105966
H	1.53591	-0.308982	-1.58616
H	-0.778856	-1.77883	-1.27373
H	-2.02026	-0.674995	0.925295
H	-0.339049	1.3582	1.73514
C	3.86844	-0.0211902	1.09472
C	4.53786	1.02109	0.48917
N	4.89411	0.702	-0.778814
C	4.4474	-0.533528	-0.959205
N	3.82169	-1.0138	0.141441
H	3.43644	-0.123388	2.10292
H	4.77017	1.9976	0.944476
H	4.55143	-1.13325	-1.87776
H	3.38428	-1.9617	0.248267
