18
  This energy is -0.9852 and Call times are: 196819
C	-0.263488	0.36618	-1.04062
C	-0.622639	-0.869487	-0.588389
C	-0.118316	-0.959701	0.744892
C	0.504499	0.228801	0.989713
O	0.425545	1.05054	-0.0898821
H	-0.435701	0.869961	-2.00592
H	-1.18617	-1.64013	-1.1385
H	-0.213085	-1.8142	1.43405
H	1.034	0.607058	1.87954
C	5.29926	-1.00702	-0.109018
C	4.14648	-0.804844	0.61994
N	3.72623	0.479894	0.523257
C	4.61491	1.07248	-0.262693
N	5.58318	0.218035	-0.670091
H	5.91705	-1.90599	-0.263067
H	3.61047	-1.56296	1.21391
H	4.6042	2.13008	-0.571872
H	6.39544	0.445452	-1.29442
