18
  This energy is -1.4017 and Call times are: 198861
C	0.884238	-0.688861	-0.173193
C	-0.348493	-1.15645	0.176248
C	-1.18275	-0.00388034	0.301638
C	-0.38617	1.06628	0.0177506
O	0.879421	0.666401	-0.27446
H	1.83381	-1.21095	-0.375645
H	-0.640994	-2.20755	0.330265
H	-2.25068	0.016322	0.572203
H	-0.597377	2.14788	-0.0102347
C	4.17556	0.570603	-0.731231
C	4.30722	0.771039	0.626575
N	5.23604	-0.0619549	1.15567
C	5.6789	-0.776441	0.129994
N	5.07038	-0.432581	-1.02977
H	3.52997	1.05471	-1.48116
H	3.74867	1.50178	1.23393
H	6.44799	-1.56445	0.17233
H	5.24663	-0.850542	-1.97608
