18
  This energy is -1.933 and Call times are: 11036
C	-0.0963196	-1.00173	0.523121
C	0.373311	0.111042	1.1568
C	0.34614	1.15603	0.183474
C	-0.137697	0.58959	-0.959075
O	-0.413195	-0.727706	-0.769748
H	-0.250877	-2.03423	0.877127
H	0.70554	0.188255	2.20454
H	0.653113	2.20456	0.326509
H	-0.33006	1.0111	-1.95936
C	4.63586	-0.56421	-1.02387
C	5.55648	0.250495	-0.399479
N	5.06708	0.736415	0.767091
C	3.8475	0.225106	0.866035
N	3.54062	-0.566001	-0.189222
H	4.68109	-1.12415	-1.97147
H	6.56506	0.496386	-0.769831
H	3.13684	0.397362	1.69037
H	2.63996	-1.08235	-0.342396
