18
  This energy is -1.1533 and Call times are: 172299
C	-0.493826	-0.725529	0.718432
C	-1.05503	-0.385854	-0.477414
C	-0.149226	0.535141	-1.08685
C	0.885534	0.67697	-0.209623
O	0.691626	-0.0857388	0.898388
H	-0.833646	-1.40226	1.51956
H	-2.01096	-0.747565	-0.889069
H	-0.263221	1.02949	-2.06497
H	1.80605	1.28171	-0.256462
C	4.72045	0.8137	0.70215
C	4.29317	-0.485798	0.529284
N	5.07955	-1.14506	-0.355866
C	5.9912	-0.25793	-0.730698
N	5.81748	0.938462	-0.120734
H	4.33436	1.63124	1.33151
H	3.43157	-0.95949	1.02739
H	6.80855	-0.431737	-1.449
H	6.4063	1.79744	-0.250028
