18
  This energy is -0.9713 and Call times are: 71487
C	-1.07274	0.179	-0.321838
C	-0.299416	-0.801381	-0.870647
C	0.96691	-0.713001	-0.215877
C	0.855628	0.313584	0.675252
O	-0.383354	0.869739	0.624013
H	-2.11466	0.482633	-0.515401
H	-0.591419	-1.51518	-1.65761
H	1.85195	-1.34466	-0.394239
H	1.57568	0.740188	1.39274
C	7.83176	-0.888614	0.244912
C	6.45428	-0.937054	0.208454
N	5.93103	0.272258	-0.108238
C	6.97993	1.0679	-0.26764
N	8.14885	0.414953	-0.0654992
H	8.58374	-1.66368	0.462524
H	5.82861	-1.82292	0.404986
H	6.94876	2.13707	-0.532471
H	9.11301	0.823829	-0.132476
