18
  This energy is -0.768 and Call times are: 116826
C	-0.28031	0.503625	0.976826
C	-0.874982	0.825305	-0.207768
C	-0.263626	-0.0102352	-1.19176
C	0.650666	-0.768743	-0.521602
O	0.653925	-0.468111	0.803774
H	-0.431112	0.888397	1.99881
H	-1.66491	1.5757	-0.372168
H	-0.485301	-0.0364726	-2.27077
H	1.35051	-1.54654	-0.868737
C	5.90696	0.513733	-0.685557
C	4.6616	0.0627948	-1.0688
N	3.99333	-0.476643	-0.0205027
C	4.82097	-0.360799	1.00917
N	5.98813	0.229986	0.659466
H	6.71425	1.00024	-1.25576
H	4.2333	0.117017	-2.08294
H	4.62261	-0.691937	2.04127
H	6.80019	0.433174	1.29235
