18
  This energy is -1.0397 and Call times are: 18578
C	-1.077	0.194426	-0.297771
C	-0.028936	0.841015	-0.884163
C	1.14679	0.334561	-0.25068
C	0.713397	-0.576807	0.666902
O	-0.642003	-0.675157	0.651762
H	-2.16447	0.263335	-0.464875
H	-0.07877	1.59861	-1.6827
H	2.18978	0.621412	-0.460398
H	1.26183	-1.21258	1.38123
C	5.6251	1.08769	-0.146012
C	4.9762	0.319309	-1.08924
N	4.62178	-0.884943	-0.578673
C	5.04918	-0.86373	0.676518
N	5.66085	0.3041	0.985756
H	6.04979	2.10279	-0.198329
H	4.75741	0.612288	-2.12902
H	4.94041	-1.67649	1.4126
H	6.08207	0.563256	1.91132
