18
  This energy is -1.0862 and Call times are: 50409
C	-0.656025	0.60724	-0.698063
C	-0.285372	1.05982	0.534074
C	0.525035	0.0295943	1.10152
C	0.578069	-0.961594	0.166051
O	-0.137643	-0.625671	-0.939355
H	-1.27761	1.06131	-1.48718
H	-0.555541	2.02256	0.996931
H	1.00813	0.0347477	2.09182
H	1.08409	-1.94098	0.166481
C	4.68076	0.960501	-0.64379
C	4.02139	0.562665	0.499931
N	4.53563	-0.594365	0.982998
C	5.51031	-0.913106	0.142155
N	5.63755	-0.00684357	-0.855887
H	4.54148	1.83438	-1.29989
H	3.18382	1.08976	0.985212
H	6.16203	-1.79902	0.210418
H	6.33263	-0.0356107	-1.64157
