18
  This energy is -1.0427 and Call times are: 153010
C	-0.252843	1.10319	-0.07375
C	0.14888	0.372168	-1.15292
C	0.370101	-0.952718	-0.667265
C	0.0840337	-0.914356	0.665802
O	-0.298061	0.333421	1.04537
H	-0.531873	2.16489	0.0272294
H	0.276614	0.730009	-2.18719
H	0.703458	-1.82635	-1.25013
H	0.11281	-1.69611	1.44252
C	5.7128	-0.061433	1.0029
C	6.19868	0.267208	-0.244927
N	5.21385	0.240113	-1.17546
C	4.12116	-0.104028	-0.507455
N	4.36993	-0.297022	0.809534
H	6.21098	-0.141652	1.98214
H	7.2422	0.523384	-0.490461
H	3.11273	-0.229038	-0.933684
H	3.67268	-0.573453	1.54349
