18
  This energy is -1.1356 and Call times are: 92247
C	-0.921011	0.0201582	-0.661614
C	-0.251894	1.15438	-0.306357
C	0.833497	0.726209	0.517486
C	0.731832	-0.631857	0.59294
O	-0.334026	-1.08006	-0.121256
H	-1.81634	-0.135376	-1.28567
H	-0.497963	2.18877	-0.595445
H	1.59629	1.36263	0.994154
H	1.34671	-1.38314	1.11518
C	4.50679	1.01862	0.322884
C	5.0317	0.708732	-0.913879
N	5.51892	-0.555658	-0.935035
C	5.29711	-1.02837	0.283968
N	4.68895	-0.117161	1.07986
H	4.03233	1.93639	0.705148
H	5.06759	1.37483	-1.79131
H	5.5599	-2.03501	0.647084
H	4.40946	-0.250483	2.08254
