18
  This energy is -1.042 and Call times are: 11132
C	-1.00238	0.48229	-0.221418
C	-0.000956301	0.421685	-1.14546
C	1.08416	-0.248688	-0.502625
C	0.650047	-0.538561	0.75749
O	-0.622107	-0.0993562	0.946525
H	-2.01846	0.906959	-0.271283
H	-0.0240722	0.81009	-2.17633
H	2.06966	-0.48339	-0.935993
H	1.1438	-1.04665	1.60206
C	6.19764	1.01971	-0.428247
C	6.36198	-0.161283	-1.12063
N	6.84744	-1.13667	-0.314746
C	6.98375	-0.562972	0.873071
N	6.60513	0.737015	0.856362
H	5.83175	2.00832	-0.748093
H	6.13897	-0.327035	-2.18723
H	7.35624	-1.04892	1.78922
H	6.61931	1.40274	1.66745
