18
  This energy is -0.5585 and Call times are: 171557
C	0.797178	-0.572741	-0.568222
C	-0.522721	-0.626439	-0.907868
C	-1.20143	0.213896	0.0266429
C	-0.236363	0.706929	0.854859
O	0.990212	0.236932	0.506105
H	1.68505	-1.0579	-1.0059
H	-0.973207	-1.20025	-1.73364
H	-2.28277	0.421175	0.0694899
H	-0.292846	1.39102	1.71746
C	5.06121	-0.286533	-0.0784054
C	6.08792	-0.750797	-0.873054
N	7.27465	-0.211258	-0.502809
C	6.98525	0.584694	0.517649
N	5.66358	0.573959	0.812036
H	3.98058	-0.500456	-0.0833794
H	5.99366	-1.4654	-1.7069
H	7.70304	1.19827	1.08557
H	5.18829	1.11756	1.57351
