18
  This energy is -1.3506 and Call times are: 45807
C	0.0662487	-0.589718	0.966564
C	0.93422	0.418268	0.664961
C	0.533671	0.909229	-0.615132
C	-0.543711	0.157921	-0.982771
O	-0.843039	-0.762407	-0.0286178
H	-0.0089984	-1.25134	1.84511
H	1.77245	0.779805	1.28201
H	0.999595	1.72711	-1.18791
H	-1.17628	0.179422	-1.88535
C	4.00199	-0.123133	-0.750667
C	4.41759	-1.03261	0.198685
N	5.48479	-0.56402	0.890068
C	5.73032	0.631611	0.371602
N	4.86358	0.943187	-0.621003
H	3.18145	-0.158102	-1.48486
H	3.96652	-2.01851	0.397152
H	6.53244	1.32069	0.681432
H	4.85041	1.8284	-1.18447
