18
  This energy is -0.9525 and Call times are: 209049
C	0.120181	-0.983769	-0.551503
C	1.18691	-0.270477	-0.0892592
C	0.639048	0.889373	0.539
C	-0.714113	0.78246	0.405216
O	-1.04869	-0.355444	-0.258295
H	0.0610904	-1.93989	-1.09702
H	2.25267	-0.534582	-0.181454
H	1.19557	1.70334	1.03077
H	-1.5355	1.44015	0.733863
C	4.84224	0.864348	0.252588
C	4.91828	-0.37244	0.857334
N	5.91038	-1.12062	0.316532
C	6.44778	-0.350913	-0.620151
N	5.83873	0.855996	-0.697748
H	4.1719	1.72126	0.425484
H	4.27505	-0.738323	1.67418
H	7.28919	-0.62158	-1.27817
H	6.0797	1.63665	-1.35637
