18
  This energy is -0.927 and Call times are: 148131
C	-1.10111	0.266689	-0.0531627
C	-0.318073	0.171514	-1.16589
C	0.985522	-0.177472	-0.697953
C	0.884012	-0.264751	0.659416
O	-0.383329	0.00342165	1.07044
H	-2.16895	0.510915	0.0706663
H	-0.627416	0.331058	-2.21133
H	1.88786	-0.342308	-1.30845
H	1.63	-0.506104	1.43434
C	4.78513	-0.642476	0.367869
C	5.47432	0.306823	1.09243
N	6.47293	0.852954	0.356888
C	6.40352	0.244772	-0.819514
N	5.40213	-0.665686	-0.862966
H	3.92787	-1.28183	0.632206
H	5.2689	0.607455	2.13276
H	7.06144	0.427994	-1.68427
H	5.14478	-1.27347	-1.67883
