18
  This energy is -0.8923 and Call times are: 79387
C	-0.465671	0.922907	0.466683
C	0.755919	0.449665	0.84633
C	0.99378	-0.707396	0.0433674
C	-0.103455	-0.839075	-0.756076
O	-1.00489	0.14802	-0.510971
H	-1.053	1.79001	0.810799
H	1.42264	0.872914	1.61473
H	1.88159	-1.35963	0.0654219
H	-0.359829	-1.5819	-1.5292
C	6.15075	1.03508	-0.101914
C	4.78896	0.81903	-0.099451
N	4.50354	-0.498749	0.0365697
C	5.68376	-1.09794	0.11818
N	6.7083	-0.216031	0.0397237
H	6.74279	1.95974	-0.191448
H	4.00728	1.59039	-0.193383
H	5.85507	-2.18007	0.235997
H	7.73228	-0.442227	0.0792583
