18
  This energy is -1.4748 and Call times are: 179266
C	0.00109224	-0.341093	1.08169
C	-0.117186	-1.21429	0.0405833
C	-0.0771176	-0.417718	-1.14431
C	0.0621088	0.871938	-0.72268
O	0.111592	0.937296	0.633894
H	0.0200634	-0.501792	2.17213
H	-0.222123	-2.30948	0.100954
H	-0.144812	-0.772496	-2.1853
H	0.136831	1.8196	-1.2809
C	5.36998	0.475587	0.118511
C	4.41681	0.806493	-0.821222
N	3.29795	0.0575749	-0.667004
C	3.55603	-0.734926	0.36448
N	4.79272	-0.521295	0.872954
H	6.38439	0.865932	0.297792
H	4.51637	1.57221	-1.60775
H	2.87472	-1.48989	0.788842
H	5.22875	-1.02004	1.68683
