18
  This energy is -0.5627 and Call times are: 39113
C	1.06017	0.0533926	-0.399475
C	0.0742116	0.891643	-0.830273
C	-1.09924	0.519994	-0.105696
C	-0.726764	-0.512557	0.703918
O	0.588692	-0.810731	0.537545
H	2.12368	-0.0283975	-0.677901
H	0.164224	1.69145	-1.5828
H	-2.09994	0.974358	-0.184735
H	-1.296	-1.11146	1.43367
C	6.5457	-0.466532	-0.672486
C	5.36286	-1.06651	-0.295581
N	4.62173	-0.240031	0.481704
C	5.34206	0.868458	0.586607
N	6.51078	0.781534	-0.0917117
H	7.38193	-0.827352	-1.29222
H	5.03093	-2.08093	-0.570575
H	5.0609	1.77405	1.14793
H	7.24957	1.52352	-0.161849
