18
  This energy is -2.0664 and Call times are: 49893
C	-0.503282	-0.687114	-0.748988
C	-0.617789	-0.866173	0.598306
C	0.144333	0.182326	1.19825
C	0.657283	0.909549	0.164619
O	0.271915	0.392747	-1.0318
H	-0.919341	-1.25168	-1.59952
H	-1.1823	-1.65724	1.11756
H	0.288206	0.365827	2.27516
H	1.30164	1.80387	0.148852
C	5.16032	-1.03907	0.119072
C	6.15956	-0.723494	-0.77707
N	6.55101	0.566458	-0.63814
C	5.79748	1.0493	0.340469
N	4.94281	0.120036	0.829955
H	4.60707	-1.97522	0.295348
H	6.60507	-1.40347	-1.52138
H	5.83045	2.07647	0.738054
H	4.24703	0.256524	1.6036
