18
  This energy is -1.1161 and Call times are: 80028
C	-0.37724	0.913815	0.555907
C	0.750929	0.245053	0.93056
C	0.894846	-0.830143	0.0013893
C	-0.158083	-0.723503	-0.859042
O	-0.945201	0.336029	-0.535237
H	-0.87416	1.8029	0.977638
H	1.41514	0.484834	1.77639
H	1.69283	-1.58975	-0.0164416
H	-0.454758	-1.33045	-1.73016
C	6.0967	0.277934	-0.709765
C	4.95767	1.02184	-0.485386
N	4.13345	0.400604	0.392814
C	4.75878	-0.724422	0.712031
N	5.94671	-0.844756	0.0733428
H	6.97413	0.461882	-1.34994
H	4.71582	1.99569	-0.941432
H	4.39167	-1.49549	1.40838
H	6.62438	-1.64149	0.158482
