18
  This energy is -0.6035 and Call times are: 110314
C	0.287122	-0.520201	-0.966102
C	1.1805	-0.307432	0.0423526
C	0.454227	0.363751	1.07296
C	-0.818851	0.501882	0.603322
O	-0.938856	-0.0323453	-0.640548
H	0.398257	-1.00072	-1.952
H	2.24422	-0.594343	0.0588325
H	0.842885	0.7007	2.04739
H	-1.71825	0.955246	1.05141
C	6.7762	0.646402	0.860516
C	7.34942	0.334416	-0.354076
N	6.51888	-0.429492	-1.10451
C	5.43454	-0.5908	-0.358311
N	5.54073	0.0388058	0.835804
H	7.14765	1.23806	1.71228
H	8.34739	0.646836	-0.702357
H	4.53367	-1.16049	-0.637792
H	4.81934	0.0600571	1.59765
