18
  This energy is -1.0337 and Call times are: 148356
C	0.376048	1.02608	-0.303563
C	-0.950782	0.751023	-0.14787
C	-1.02306	-0.623772	0.232698
C	0.265985	-1.06747	0.27597
O	1.13362	-0.0730832	-0.0487184
H	0.902225	1.95184	-0.588777
H	-1.79402	1.44648	-0.287055
H	-1.93348	-1.20617	0.447248
H	0.691596	-2.0546	0.520279
C	4.86549	-0.887459	0.755064
C	4.07979	0.228797	0.949461
N	4.11956	1.0482	-0.129199
C	4.92687	0.442583	-0.989495
N	5.40241	-0.728188	-0.502928
H	5.0736	-1.75495	1.40135
H	3.48493	0.457602	1.8487
H	5.20394	0.812524	-1.9898
H	6.05565	-1.38874	-0.990994
