18
  This energy is -0.8885 and Call times are: 133857
C	-1.01813	-0.491571	0.090393
C	0.139869	-1.21136	0.0541166
C	1.19246	-0.25297	-0.062757
C	0.584762	0.967875	-0.0875827
O	-0.765182	0.840994	0.00496261
H	-2.07164	-0.805274	0.173785
H	0.242537	-2.30727	0.104594
H	2.2735	-0.458056	-0.120913
H	0.995824	1.98768	-0.166808
C	4.99693	-0.185102	0.993547
C	5.87325	0.848233	0.737776
N	6.39081	0.752216	-0.510996
C	5.83766	-0.336544	-1.02796
N	4.98961	-0.93725	-0.159885
H	4.39798	-0.430265	1.885
H	6.14135	1.66134	1.43192
H	6.01848	-0.739045	-2.03768
H	4.43265	-1.80973	-0.332591
