18
  This energy is -1.3456 and Call times are: 143186
C	-0.148249	0.74349	-0.843591
C	-0.852849	-0.421706	-0.764657
C	-0.392202	-1.07787	0.417447
C	0.553228	-0.255722	0.956528
O	0.715057	0.861236	0.19941
H	-0.16854	1.56153	-1.58227
H	-1.62002	-0.782908	-1.46828
H	-0.731202	-2.04897	0.812585
H	1.17388	-0.350667	1.86263
C	4.03306	0.083886	-1.07704
C	5.02136	-0.786742	-0.669105
N	5.31879	-0.609074	0.64104
C	4.51805	0.368058	1.04435
N	3.72347	0.819472	0.0451211
H	3.54445	0.227271	-2.0539
H	5.52513	-1.53991	-1.29665
H	4.47243	0.791541	2.06062
H	3.0079	1.58413	0.11241
