18
  This energy is -0.8241 and Call times are: 188040
C	0.619889	-0.928461	0.200246
C	-0.637049	-0.766624	0.704517
C	-1.08365	0.50802	0.239814
C	-0.0601966	1.01258	-0.507408
O	0.98823	0.148522	-0.542348
H	1.34545	-1.75288	0.295861
H	-1.19387	-1.47389	1.33998
H	-2.05558	0.985527	0.443342
H	0.0439655	1.9617	-1.05838
C	5.6089	1.13495	0.0393422
C	4.37226	0.625054	-0.295109
N	4.36984	-0.728852	-0.236414
C	5.6003	-1.05763	0.133043
N	6.38552	0.0309673	0.311856
H	5.9789	2.17075	0.100662
H	3.48174	1.20982	-0.577711
H	5.9797	-2.08059	0.287393
H	7.39383	0.0335096	0.602679
