18
  This energy is -0.9399 and Call times are: 194921
C	-0.0731299	1.0166	0.49757
C	-0.870571	-0.0306305	0.855018
C	-0.48498	-1.12002	0.0155704
C	0.514051	-0.642328	-0.780747
O	0.77852	0.66084	-0.499996
H	-0.0145616	2.05191	0.871675
H	-1.65195	-0.0354899	1.63189
H	-0.907952	-2.13745	0.0121785
H	1.10913	-1.12279	-1.57465
C	6.07586	-0.035419	-0.0344852
C	5.22505	0.23736	-1.08466
N	3.92989	0.193962	-0.688183
C	3.97704	-0.104604	0.603041
N	5.24851	-0.252974	1.04457
H	7.17487	-0.0883526	0.0195419
H	5.52253	0.464704	-2.12132
H	3.11046	-0.226593	1.27266
H	5.54716	-0.488803	2.02255
