18
  This energy is -1.2993 and Call times are: 140245
C	-0.762964	-0.106716	-0.832406
C	-0.121746	-1.18006	-0.287287
C	0.746793	-0.649177	0.714674
C	0.559654	0.701712	0.693389
O	-0.358977	1.05056	-0.245457
H	-1.51791	-0.0350197	-1.63251
H	-0.247734	-2.23937	-0.563088
H	1.42811	-1.21505	1.37019
H	1.0132	1.51207	1.28741
C	5.27013	0.20228	-1.00952
C	4.45308	1.08097	-0.330189
N	3.96	0.516371	0.798797
C	4.46921	-0.707919	0.819778
N	5.26585	-0.945704	-0.249058
H	5.83545	0.309098	-1.94896
H	4.21054	2.1122	-0.634455
H	4.29143	-1.4712	1.5944
H	5.78192	-1.83511	-0.458542
