18
  This energy is -1.7274 and Call times are: 79547
C	0.479125	1.01755	0.14642
C	0.0928361	0.561711	-1.0797
C	-0.458354	-0.737211	-0.858091
C	-0.360233	-0.960462	0.483886
O	0.209924	0.100793	1.11291
H	0.950715	1.96352	0.45945
H	0.186628	1.08742	-2.04351
H	-0.87689	-1.41884	-1.61592
H	-0.655569	-1.82181	1.10526
C	4.35135	0.762279	-0.860723
C	4.25053	-0.608298	-0.97252
N	3.94665	-1.17482	0.220469
C	3.85929	-0.159557	1.06914
N	4.09498	1.02946	0.465579
H	4.57978	1.54045	-1.60625
H	4.39161	-1.19853	-1.89261
H	3.62548	-0.230584	2.14362
H	4.08444	1.97476	0.921165
