18
  This energy is -1.1904 and Call times are: 126879
C	0.662776	0.217094	-0.894427
C	-0.0311343	1.19537	-0.244944
C	-0.737434	0.539652	0.809232
C	-0.412783	-0.781447	0.71088
O	0.441404	-0.99646	-0.324081
H	1.33945	0.254965	-1.76387
H	-0.0443031	2.27087	-0.484197
H	-1.4071	1.00565	1.54983
H	-0.718854	-1.65595	1.30822
C	4.18771	-0.930389	-0.591173
C	4.2099	0.379568	-1.0209
N	4.75609	1.19203	-0.0838301
C	5.07154	0.38915	0.923396
N	4.7487	-0.900474	0.666038
H	3.82452	-1.85106	-1.07491
H	3.84159	0.753015	-1.9903
H	5.54084	0.693277	1.87287
H	4.89741	-1.72119	1.30287
