18
  This energy is -2.2255 and Call times are: 54898
C	-0.52866	-0.954959	0.308176
C	-0.622645	0.197865	1.03104
C	0.16865	1.16168	0.334596
C	0.676331	0.51274	-0.752379
O	0.260738	-0.780811	-0.784314
H	-0.969707	-1.95327	0.463438
H	-1.19207	0.353882	1.96137
H	0.334726	2.21355	0.61758
H	1.33629	0.855477	-1.56615
C	4.27944	0.219581	1.135
C	5.45823	0.456622	0.460178
N	5.36133	0.0827469	-0.838798
C	4.12711	-0.384459	-0.969327
N	3.4347	-0.323351	0.192751
H	3.99151	0.393044	2.18407
H	6.37691	0.890718	0.887307
H	3.67896	-0.783517	-1.89353
H	2.44326	-0.630954	0.346639
