18
  This energy is -0.7117 and Call times are: 87242
C	-0.955393	-0.590883	-0.156468
C	-0.907925	0.528378	0.621592
C	0.445604	0.98184	0.572116
C	1.10577	0.0996533	-0.231811
O	0.26552	-0.867347	-0.68557
H	-1.78558	-1.27047	-0.409851
H	-1.74235	0.988511	1.17486
H	0.869276	1.86346	1.0794
H	2.15889	0.0510123	-0.554035
C	5.30048	0.57117	-0.836324
C	5.09283	-0.722351	-0.406407
N	5.96705	-1.05796	0.57319
C	6.71421	0.0232477	0.750315
N	6.35162	1.03288	-0.0759755
H	4.79161	1.17563	-1.60393
H	4.32787	-1.41947	-0.785508
H	7.54038	0.129748	1.47165
H	6.78806	1.98583	-0.127576
