18
  This energy is -0.6829 and Call times are: 201583
C	0.187448	-1.09252	-0.240122
C	1.04703	-0.103532	-0.618779
C	0.475611	1.11525	-0.141103
C	-0.68272	0.763442	0.487289
O	-0.874485	-0.581047	0.436416
H	0.217877	-2.18435	-0.389234
H	1.989	-0.220524	-1.17834
H	0.886444	2.1311	-0.256665
H	-1.44737	1.36742	1.00282
C	6.74526	-0.886404	0.209691
C	7.04818	0.332263	-0.359724
N	5.9465	1.1161	-0.451414
C	4.96386	0.386482	0.059177
N	5.39466	-0.829098	0.471939
H	7.37424	-1.76119	0.439188
H	8.04192	0.659982	-0.706034
H	3.91001	0.693824	0.154918
H	4.81101	-1.58407	0.90855
