18
  This energy is -0.9615 and Call times are: 176680
C	0.441306	-0.311054	-0.997444
C	-0.859567	-0.553522	-0.666818
C	-1.03457	-0.0220535	0.647347
C	0.174803	0.498271	1.00378
O	1.08784	0.330565	0.0111828
H	1.01974	-0.542025	-1.90702
H	-1.61966	-1.05621	-1.28622
H	-1.95734	-0.0307425	1.24945
H	0.509729	1.00679	1.92274
C	5.61985	0.00156206	-0.844358
C	4.9365	-1.09213	-0.356501
N	4.06353	-0.729548	0.614565
C	4.20478	0.584091	0.728695
N	5.13143	1.07236	-0.129498
H	6.39334	0.0906798	-1.62365
H	5.05772	-2.13636	-0.687794
H	3.65458	1.2376	1.42472
H	5.42239	2.07551	-0.230982
