18
  This energy is -0.9571 and Call times are: 196980
C	0.827819	-0.395224	0.667019
C	-0.47966	-0.741849	0.842303
C	-1.20668	-0.0529975	-0.176047
C	-0.2793	0.653765	-0.883733
O	0.968501	0.456496	-0.382644
H	1.74019	-0.682821	1.21485
H	-0.890897	-1.41508	1.61155
H	-2.29369	-0.0859479	-0.353351
H	-0.378513	1.32464	-1.75283
C	5.44624	0.451519	-1.03021
C	4.55277	1.00958	-0.140595
N	4.38579	0.217236	0.946059
C	5.17267	-0.828399	0.731386
N	5.8334	-0.734202	-0.446811
H	5.82144	0.802542	-2.00466
H	4.02564	1.96974	-0.263353
H	5.30275	-1.6913	1.40422
H	6.51143	-1.43155	-0.84081
