18
  This energy is -1.3646 and Call times are: 33514
C	0.0481616	1.11618	-0.195501
C	-0.295948	0.601702	1.01993
C	-0.243893	-0.81804	0.872477
C	0.127433	-1.04581	-0.420044
O	0.310042	0.124247	-1.08685
H	0.142102	2.15606	-0.549178
H	-0.559954	1.16542	1.92912
H	-0.459513	-1.57396	1.64461
H	0.293804	-1.98137	-0.978888
C	4.82525	-0.759859	0.645573
C	4.7346	-0.721241	-0.729722
N	3.92529	0.286161	-1.13797
C	3.51542	0.870286	-0.0201858
N	4.0304	0.276304	1.08234
H	5.38062	-1.42904	1.32182
H	5.23866	-1.40222	-1.43473
H	2.83786	1.73658	0.0482217
H	3.85719	0.552476	2.07983
