18
  This energy is -0.8841 and Call times are: 155504
C	0.832325	0.76215	-0.112973
C	-0.423965	1.10701	0.290984
C	-1.17547	-0.107471	0.310814
C	-0.312075	-1.08727	-0.0827747
O	0.918588	-0.574055	-0.345624
H	1.74077	1.36608	-0.271862
H	-0.785218	2.11546	0.549102
H	-2.23524	-0.227873	0.587363
H	-0.449273	-2.17317	-0.214073
C	5.67143	-0.624212	-0.737992
C	4.90679	-1.11351	0.299824
N	4.26021	-0.112214	0.944691
C	4.62235	0.99405	0.309349
N	5.47255	0.738142	-0.713034
H	6.32135	-1.13213	-1.46817
H	4.81007	-2.17108	0.594846
H	4.29459	2.01789	0.551335
H	5.89898	1.4432	-1.36289
