18
  This energy is -1.2956 and Call times are: 161092
C	0.431825	0.946541	0.45165
C	-0.811991	0.905101	-0.106541
C	-0.993486	-0.437854	-0.557816
C	0.155444	-1.09852	-0.235554
O	1.03692	-0.268349	0.381553
H	0.993393	1.76818	0.925779
H	-1.52968	1.7368	-0.191939
H	-1.87988	-0.854424	-1.06267
H	0.46448	-2.14547	-0.389329
C	4.20357	-0.219539	0.838212
C	4.23963	-0.758291	-0.430484
N	5.29699	-0.283869	-1.13293
C	5.91453	0.546044	-0.303173
N	5.29393	0.619336	0.898108
H	3.50254	-0.368759	1.67477
H	3.52165	-1.48082	-0.851568
H	6.82517	1.12584	-0.524127
H	5.58745	1.20383	1.71876
