18
  This energy is -0.5133 and Call times are: 123207
C	-1.03285	-0.146053	-0.445308
C	-0.835521	0.470773	0.755093
C	0.576341	0.463115	0.971208
C	1.11715	-0.157713	-0.116208
O	0.148852	-0.53635	-0.991449
H	-1.95259	-0.365887	-1.01187
H	-1.60681	0.889189	1.42152
H	1.11736	0.874414	1.83852
H	2.16187	-0.388202	-0.38207
C	5.41909	-0.603635	-0.24195
C	5.75722	-0.0221727	0.961676
N	6.96156	0.594457	0.885209
C	7.36902	0.396289	-0.361116
N	6.47386	-0.320868	-1.08081
H	4.53211	-1.17943	-0.550609
H	5.15375	-0.0365366	1.88389
H	8.3146	0.754451	-0.799112
H	6.5658	-0.606982	-2.08627
