18
  This energy is -1.1489 and Call times are: 108870
C	0.85522	-0.431439	0.607338
C	0.980404	0.717693	-0.116677
C	-0.290231	0.931964	-0.73287
C	-1.07971	-0.105146	-0.331006
O	-0.39638	-0.94743	0.487911
H	1.5728	-0.978241	1.24085
H	1.87752	1.35093	-0.207695
H	-0.574159	1.76437	-1.39664
H	-2.13009	-0.353811	-0.554865
C	5.945	0.0309331	-1.12477
C	6.7357	0.220347	-0.0111869
N	6.00881	0.115654	1.12775
C	4.77187	-0.137745	0.722276
N	4.68161	-0.198621	-0.627442
H	6.18399	0.0428523	-2.20008
H	7.81764	0.430672	-0.00914615
H	3.89426	-0.287448	1.3716
H	3.81443	-0.385149	-1.18822
