18
  This energy is -0.9994 and Call times are: 163196
C	-0.602997	0.959887	0.0375932
C	-1.15523	-0.260208	0.296018
C	-0.0960107	-1.20741	0.151133
C	1.00999	-0.482514	-0.183039
O	0.718611	0.84288	-0.256808
H	-1.03822	1.9727	0.0305814
H	-2.20333	-0.471955	0.56199
H	-0.159578	-2.29957	0.282434
H	2.04856	-0.787637	-0.391644
C	6.11319	0.829922	-0.277954
C	6.41034	-0.304641	-1.00295
N	7.36772	-1.04068	-0.387991
C	7.66338	-0.365311	0.714314
N	6.93381	0.76994	0.826209
H	5.39965	1.64845	-0.463437
H	5.95107	-0.605311	-1.95873
H	8.40632	-0.656934	1.47408
H	6.98376	1.47089	1.60559
