18
  This energy is -0.9193 and Call times are: 48143
C	0.688676	0.783231	-0.445729
C	0.234143	0.855843	0.83821
C	-0.593566	-0.293038	1.02552
C	-0.571767	-0.966295	-0.160489
O	0.206424	-0.32323	-1.07038
H	1.35117	1.44682	-1.02539
H	0.459153	1.6398	1.57908
H	-1.13791	-0.576962	1.94049
H	-1.06095	-1.90127	-0.479523
C	5.37812	0.307149	1.10154
C	4.27837	0.720502	0.379854
N	4.27163	0.170258	-0.858571
C	5.36305	-0.581592	-0.904989
N	6.06394	-0.532536	0.252565
H	5.71016	0.543228	2.12505
H	3.48966	1.40591	0.730565
H	5.69646	-1.1888	-1.76194
H	6.95923	-1.03787	0.463187
