18
  This energy is -0.7795 and Call times are: 204133
C	0.328331	-1.07934	-0.116695
C	0.703143	-0.103106	-0.992394
C	0.100309	1.10126	-0.516774
C	-0.58967	0.754673	0.607583
O	-0.461438	-0.573259	0.866745
H	0.55401	-2.15788	-0.0837232
H	1.34022	-0.219424	-1.88385
H	0.177058	2.10439	-0.966145
H	-1.20278	1.35189	1.30233
C	6.47652	0.646604	-0.445775
C	6.54653	-0.212521	0.630398
N	5.34627	-0.794262	0.870109
C	4.53473	-0.297921	-0.0538405
N	5.16889	0.575511	-0.871493
H	7.23924	1.28234	-0.922878
H	7.44159	-0.423037	1.23818
H	3.4668	-0.540006	-0.176885
H	4.74517	1.09884	-1.67639
