18
  This energy is -0.851 and Call times are: 142962
C	-0.275987	0.540789	-0.958008
C	0.168579	1.19951	0.150517
C	0.407911	0.192024	1.13429
C	0.0884709	-0.993413	0.540097
O	-0.33109	-0.799183	-0.737892
H	-0.581482	0.906196	-1.95219
H	0.313442	2.28588	0.264057
H	0.775232	0.341956	2.16225
H	0.115982	-2.02982	0.914742
C	4.24386	-0.00123562	0.220079
C	5.25597	0.279379	1.11341
N	6.47086	0.18747	0.520032
C	6.21342	-0.148884	-0.736636
N	4.88509	-0.274795	-0.967432
H	3.1492	-0.0248331	0.341325
H	5.13135	0.546511	2.17547
H	6.96026	-0.315579	-1.52952
H	4.43031	-0.531834	-1.87758
