18
  This energy is -0.9318 and Call times are: 33990
C	-0.00503869	1.03193	0.47063
C	-0.329959	-0.0921297	1.17155
C	-0.208357	-1.17646	0.249834
C	0.180137	-0.619296	-0.932965
O	0.309166	0.728576	-0.816329
H	0.0401515	2.09216	0.769172
H	-0.625608	-0.151732	2.23133
H	-0.390979	-2.24394	0.452887
H	0.394523	-1.06781	-1.9169
C	4.6619	0.235585	1.06661
C	3.99694	0.320343	-0.138288
N	4.80691	-0.0242438	-1.16869
C	5.96993	-0.321643	-0.605162
N	5.93353	-0.180566	0.741078
H	4.33122	0.435297	2.09826
H	2.94725	0.62396	-0.282585
H	6.88117	-0.648189	-1.13169
H	6.72349	-0.35497	1.40951
