18
  This energy is -1.0804 and Call times are: 78114
C	-0.343333	0.947272	-0.520767
C	-1.16864	-0.121878	-0.330618
C	-0.385712	-1.10412	0.349339
C	0.848919	-0.548491	0.514678
O	0.892696	0.704114	-0.0107516
H	-0.513263	1.92621	-0.998328
H	-2.22299	-0.210006	-0.638311
H	-0.712334	-2.10523	0.673662
H	1.76836	-0.936248	0.983211
C	5.72876	-0.846676	0.748431
C	6.48688	0.224936	0.326467
N	5.79266	1.00447	-0.537766
C	4.60837	0.41868	-0.651517
N	4.52029	-0.701251	0.104516
H	5.95613	-1.67484	1.43835
H	7.52233	0.449588	0.630132
H	3.76928	0.767634	-1.27474
H	3.68967	-1.33755	0.184862
