18
  This energy is -1.2132 and Call times are: 98086
C	0.0745583	1.07153	-0.36424
C	-1.09805	0.528221	0.0718687
C	-0.792211	-0.81733	0.440752
C	0.540287	-0.977489	0.197499
O	1.08561	0.166041	-0.294408
H	0.31753	2.07733	-0.744465
H	-2.07989	1.02513	0.12815
H	-1.48978	-1.5711	0.839908
H	1.2088	-1.84388	0.330538
C	4.84472	-0.750383	-0.790092
C	4.61943	-0.994988	0.548025
N	4.09742	0.0941286	1.16272
C	3.99924	1.0109	0.209559
N	4.43714	0.55025	-0.986112
H	5.25262	-1.38854	-1.59004
H	4.82419	-1.93781	1.08095
H	3.61368	2.03581	0.332592
H	4.46153	1.08248	-1.89021
