18
  This energy is -0.8666 and Call times are: 30263
C	0.387782	-0.546025	0.915359
C	0.91274	-0.740934	-0.328346
C	0.171787	0.110792	-1.20337
C	-0.740547	0.750991	-0.417136
O	-0.622865	0.361903	0.879696
H	0.641784	-0.986644	1.89341
H	1.73887	-1.4167	-0.602112
H	0.309207	0.226702	-2.29047
H	-1.51751	1.49546	-0.656593
C	5.74814	1.02365	-0.191794
C	4.86353	0.387624	-1.03683
N	4.4225	-0.774771	-0.497534
C	5.03119	-0.859544	0.677597
N	5.84123	0.200727	0.908355
H	6.29961	1.97199	-0.292121
H	4.53562	0.746645	-2.02599
H	4.91963	-1.67665	1.40844
H	6.42833	0.36467	1.76258
