18
  This energy is -0.7073 and Call times are: 29975
C	0.868481	0.0298565	0.728869
C	-0.259147	0.776654	0.905284
C	-1.1078	0.470954	-0.20217
C	-0.423854	-0.435667	-0.957571
O	0.785064	-0.716526	-0.403812
H	1.78846	-0.0582665	1.3298
H	-0.471972	1.47295	1.73231
H	-2.10944	0.883102	-0.404513
H	-0.684689	-0.949142	-1.89755
C	5.78775	-0.828716	-0.678546
C	5.6749	0.515143	-0.965692
N	5.05762	1.17978	0.0411513
C	4.78855	0.251771	0.949462
N	5.20904	-0.975774	0.562284
H	6.22436	-1.66298	-1.25031
H	6.02782	1.01706	-1.88132
H	4.28525	0.416574	1.91577
H	5.11259	-1.86931	1.1041
