18
  This energy is -1.0052 and Call times are: 123615
C	-0.0738206	0.142761	1.12275
C	-1.10846	0.427109	0.2807
C	-0.638379	0.122266	-1.03316
C	0.642015	-0.321457	-0.877999
O	1.00324	-0.315517	0.43215
H	0.0203099	0.222387	2.21822
H	-2.10291	0.812831	0.557048
H	-1.1959	0.224639	-1.97803
H	1.39021	-0.665991	-1.61063
C	5.70972	1.06314	-0.294877
C	6.39186	-0.133429	-0.358501
N	5.61427	-1.16195	0.0586511
C	4.45414	-0.605554	0.379844
N	4.46135	0.734341	0.184348
H	6.01415	2.09108	-0.548258
H	7.43116	-0.273042	-0.69793
H	3.56582	-1.13301	0.763128
H	3.66726	1.39656	0.36367
