18
  This energy is -1.3328 and Call times are: 42069
C	-0.159428	0.854088	0.729053
C	-0.700234	0.85201	-0.523105
C	-0.281211	-0.372203	-1.12795
C	0.478664	-1.01015	-0.192012
O	0.563663	-0.275563	0.948234
H	-0.214316	1.59009	1.54792
H	-1.33096	1.6341	-0.975448
H	-0.522455	-0.728008	-2.14249
H	1.00681	-1.97752	-0.214733
C	4.17395	0.454799	-1.07813
C	3.50612	0.839028	0.0653376
N	3.89805	0.100242	1.13168
C	4.80557	-0.739118	0.651577
N	5.00732	-0.565014	-0.676044
H	4.11704	0.822644	-2.11495
H	2.74851	1.63608	0.140016
H	5.35328	-1.5017	1.2284
H	5.67194	-1.10417	-1.28337
