18
  This energy is -1.1068 and Call times are: 73075
C	-0.836255	-0.0942874	-0.760387
C	0.464448	0.0947754	-1.12481
C	1.20596	0.163452	0.0940297
C	0.292921	0.0102937	1.09567
O	-0.959346	-0.148305	0.591997
H	-1.75486	-0.204325	-1.35981
H	0.861872	0.17757	-2.14916
H	2.29261	0.310082	0.20258
H	0.406053	-0.0041867	2.19214
C	5.22789	0.539694	-1.03801
C	5.4344	1.08738	0.210406
N	5.19382	0.180097	1.18789
C	4.83941	-0.926227	0.548311
N	4.84452	-0.760477	-0.795598
H	5.32344	0.968843	-2.04808
H	5.75268	2.12092	0.423333
H	4.56596	-1.88612	1.01529
H	4.60254	-1.48446	-1.5157
