18
  This energy is -0.6745 and Call times are: 164934
C	0.357601	-0.439503	0.982527
C	-0.944093	-0.0931395	0.768051
C	-0.99876	0.415279	-0.565605
C	0.274352	0.334721	-1.04838
O	1.11582	-0.185011	-0.116269
H	0.864057	-0.870878	1.86154
H	-1.78175	-0.186322	1.4778
H	-1.88723	0.794668	-1.09548
H	0.704743	0.61076	-2.02501
C	8.26787	0.433627	-0.238151
C	7.81547	-0.0295815	0.979188
N	6.53247	-0.457369	0.893047
C	6.19023	-0.260297	-0.372916
N	7.2023	0.275147	-1.09584
H	9.24025	0.850904	-0.544579
H	8.39183	-0.0627752	1.9181
H	5.21134	-0.490318	-0.823576
H	7.17958	0.522448	-2.11544
