18
  This energy is -0.9657 and Call times are: 202448
C	0.0657602	0.726466	0.868518
C	1.15165	0.387465	0.115995
C	0.675094	-0.535112	-0.86475
C	-0.659947	-0.678441	-0.62497
O	-1.04914	0.0847965	0.430024
H	-0.043127	1.4039	1.73135
H	2.18462	0.750641	0.239177
H	1.2651	-1.02947	-1.65316
H	-1.43192	-1.28468	-1.12675
C	5.26147	-1.0908	-0.0541903
C	6.38762	-0.618915	-0.694702
N	6.60094	0.688379	-0.408366
C	5.6109	1.02622	0.40668
N	4.77648	-0.011928	0.650802
H	4.7867	-2.08484	-0.0503043
H	7.05002	-1.19832	-1.3583
H	5.44943	2.02028	0.853902
H	3.92275	0.00231261	1.26088
