18
  This energy is -1.4372 and Call times are: 14909
C	-0.948105	0.438288	-0.442043
C	-0.0599487	1.18861	0.271095
C	0.987197	0.295892	0.654048
C	0.646498	-0.921155	0.141121
O	-0.532537	-0.852581	-0.531328
H	-1.90016	0.70144	-0.931516
H	-0.134698	2.26296	0.504093
H	1.88576	0.540461	1.243
H	1.15144	-1.90014	0.184489
C	4.62358	1.00161	0.552681
C	5.5306	0.0500842	0.968665
N	5.59932	-0.977523	0.0878629
C	4.7382	-0.664684	-0.870901
N	4.12443	0.519376	-0.636641
H	4.3085	1.95596	1.00378
H	6.13666	0.0866285	1.88856
H	4.51828	-1.26695	-1.76708
H	3.40533	0.981924	-1.24508
