18
  This energy is -1.3801 and Call times are: 15069
C	0.252819	0.453648	-1.00831
C	0.84614	-0.686058	-0.55069
C	0.27469	-0.935498	0.734355
C	-0.617392	0.0737971	0.948568
O	-0.643715	0.931291	-0.105482
H	0.380145	1.01814	-1.9466
H	1.60962	-1.29047	-1.06632
H	0.507014	-1.77176	1.41316
H	-1.28518	0.29122	1.79829
C	3.91421	0.73728	-0.238502
C	4.71344	0.740058	0.885044
N	5.63632	-0.250829	0.83065
C	5.41047	-0.865987	-0.322257
N	4.38214	-0.307581	-1.00368
H	3.07361	1.38335	-0.537714
H	4.64072	1.43929	1.73395
H	5.96841	-1.73066	-0.716306
H	4.01187	-0.612487	-1.93705
