18
  This energy is -1.1881 and Call times are: 132731
C	1.04802	0.0340773	-0.4323
C	0.754218	-0.635687	0.718989
C	-0.645451	-0.448798	0.933736
C	-1.0834	0.318674	-0.105282
O	-0.0624671	0.622841	-0.949192
H	1.99555	0.165528	-0.980173
H	1.45303	-1.2043	1.35337
H	-1.24762	-0.843698	1.76772
H	-2.08338	0.710164	-0.354356
C	4.9771	-0.0251411	1.1741
C	5.17903	-1.07948	0.308801
N	5.00818	-0.69416	-0.979164
C	4.70142	0.594314	-0.913131
N	4.67001	1.04479	0.363458
H	5.02848	0.037411	2.27273
H	5.44493	-2.11129	0.590754
H	4.49018	1.25549	-1.76897
H	4.45307	2.02276	0.676131
