18
  This energy is -1.8344 and Call times are: 155239
C	-0.009978	-0.64366	-0.933811
C	-0.199443	0.706437	-0.975222
C	-0.118439	1.15434	0.37864
C	0.113376	0.0384053	1.12786
O	0.182566	-1.06868	0.342629
H	0.0103091	-1.4039	-1.73186
H	-0.378302	1.32488	-1.86944
H	-0.222006	2.1891	0.742824
H	0.246372	-0.0986247	2.21358
C	4.40232	-1.09246	0.172541
C	3.6172	-0.354288	1.03268
N	3.33879	0.866439	0.514199
C	3.94887	0.885505	-0.663112
N	4.60391	-0.272488	-0.91521
H	4.81799	-2.10931	0.254779
H	3.24665	-0.680657	2.01808
H	3.94837	1.72195	-1.38047
H	5.1595	-0.50196	-1.7754
