18
  This energy is -0.7131 and Call times are: 111949
C	0.671182	-0.788431	0.462916
C	-0.218629	-1.07784	-0.529481
C	-0.868027	0.154814	-0.844068
C	-0.317725	1.08866	-0.0161407
O	0.624088	0.530112	0.788856
H	1.38496	-1.42345	1.01294
H	-0.399546	-2.06075	-0.993444
H	-1.65255	0.317651	-1.60044
H	-0.507517	2.16876	0.0961645
C	5.22701	-1.0953	-0.215157
C	4.44671	0.034025	-0.085135
N	5.20772	1.12814	0.160406
C	6.45538	0.679286	0.182627
N	6.51976	-0.65507	-0.0385981
H	4.96266	-2.14603	-0.414193
H	3.34826	0.0789597	-0.164098
H	7.35952	1.28468	0.356565
H	7.38888	-1.24238	-0.0696968
