18
  This energy is -1.0559 and Call times are: 199886
C	-0.0938866	1.1292	-0.0498861
C	0.956904	0.458464	-0.603352
C	0.721669	-0.924947	-0.336979
C	-0.452104	-0.977469	0.355748
O	-0.964038	0.26791	0.54005
H	-0.334939	2.20411	-0.00848765
H	1.8119	0.894176	-1.14487
H	1.35801	-1.77511	-0.630902
H	-1.02046	-1.82744	0.767778
C	5.04353	0.331472	-1.09975
C	4.55785	-0.774083	-0.434154
N	5.06417	-0.85052	0.820561
C	5.86092	0.203607	0.932934
N	5.88254	0.947582	-0.198271
H	4.85767	0.710737	-2.11717
H	3.85117	-1.51795	-0.836802
H	6.45214	0.478051	1.8214
H	6.43347	1.82632	-0.358143
