18
  This energy is -1.3523 and Call times are: 129370
C	-0.0989293	0.930154	-0.641426
C	-0.242806	-0.326966	-1.15066
C	-0.050274	-1.21849	-0.0514648
C	0.19426	-0.427463	1.03244
O	0.168322	0.887584	0.690406
H	-0.162212	1.923	-1.11631
H	-0.462478	-0.599166	-2.19553
H	-0.0909887	-2.31935	-0.0746344
H	0.398867	-0.675085	2.08699
C	3.73742	0.505467	-0.0228656
C	4.01091	-0.841152	0.0910012
N	5.34646	-1.07083	0.0837355
C	5.89941	0.128733	-0.0341904
N	4.97105	1.11214	-0.102258
H	2.78404	1.05659	-0.0520454
H	3.26848	-1.65111	0.178268
H	6.97932	0.343956	-0.0756535
H	5.1558	2.14077	-0.197387
