18
  This energy is -0.6589 and Call times are: 63351
C	-0.35238	0.560153	0.921118
C	0.690475	0.994276	0.15668
C	0.828768	0.038081	-0.895311
C	-0.141786	-0.895948	-0.680863
O	-0.872531	-0.592903	0.42421
H	-0.814881	0.976476	1.83107
H	1.30109	1.89726	0.317469
H	1.56793	0.0522934	-1.71234
H	-0.411866	-1.81008	-1.23465
C	5.94308	-1.10029	0.339667
C	5.20627	-0.717806	-0.761225
N	5.12557	0.632038	-0.85022
C	5.80971	1.08524	0.1915
N	6.32236	0.0797074	0.939619
H	6.21527	-2.09547	0.725742
H	4.73145	-1.39165	-1.49289
H	5.96667	2.14397	0.453557
H	6.89892	0.179893	1.81071
