18
  This energy is -1.4019 and Call times are: 62278
C	0.297261	1.09248	-0.0672108
C	0.549138	0.333618	1.0378
C	0.0341391	-0.966109	0.745222
C	-0.486984	-0.886752	-0.512755
O	-0.334987	0.363252	-1.02403
H	0.514917	2.1492	-0.293551
H	1.04759	0.656692	1.96585
H	0.053902	-1.85112	1.40131
H	-0.985897	-1.63848	-1.14619
C	4.05927	0.292167	1.08795
C	3.843	1.01172	-0.0681707
N	4.37262	0.379495	-1.14348
C	4.91539	-0.728067	-0.656312
N	4.75306	-0.826752	0.684397
H	3.77793	0.490547	2.13439
H	3.3143	1.97574	-0.145669
H	5.44381	-1.50121	-1.23705
H	5.09128	-1.60697	1.29931
