18
  This energy is -1.0105 and Call times are: 54652
C	0.0158882	0.681676	-0.906348
C	-0.413165	-0.611357	-0.97233
C	-0.284921	-1.13387	0.350793
C	0.211179	-0.114006	1.10852
O	0.400924	1.00232	0.356961
H	0.0949776	1.46596	-1.67699
H	-0.782873	-1.1438	-1.86335
H	-0.535427	-2.15198	0.689606
H	0.468707	-0.056741	2.17887
C	5.82384	-0.550879	-0.477649
C	5.61686	-0.290318	0.860414
N	4.44542	0.362476	1.0556
C	3.92764	0.506345	-0.156768
N	4.72107	-0.0278509	-1.11525
H	6.65027	-1.05468	-1.0037
H	6.29179	-0.561657	1.68848
H	2.97028	0.995036	-0.399425
H	4.53217	-0.0410783	-2.14743
