18
  This energy is -0.7655 and Call times are: 154674
C	0.439217	-0.406026	0.963655
C	-0.823653	-0.713386	0.550058
C	-1.00904	-0.0228632	-0.68644
C	0.156905	0.645507	-0.919294
O	1.05255	0.422842	0.078326
H	1.01006	-0.708913	1.85677
H	-1.55163	-1.36136	1.06413
H	-1.90933	-0.0290063	-1.32168
H	0.469794	1.30341	-1.74665
C	5.28789	0.770605	-0.727328
C	4.65927	-0.189313	0.0372257
N	5.5565	-0.903944	0.75889
C	6.73724	-0.38932	0.443238
N	6.62848	0.623125	-0.449351
H	4.88942	1.52312	-1.42624
H	3.57441	-0.379044	0.081054
H	7.71334	-0.716157	0.836479
H	7.41543	1.18811	-0.852778
