18
  This energy is -2.0265 and Call times are: 131439
C	0.0799435	-1.13131	-0.0118458
C	-0.211112	-0.431469	1.12212
C	-0.223313	0.944725	0.739943
C	0.0613624	0.964366	-0.593829
O	0.249498	-0.294772	-1.06942
H	0.193172	-2.21248	-0.194909
H	-0.398423	-0.843049	2.12692
H	-0.421966	1.81231	1.38951
H	0.157614	1.79804	-1.30866
C	4.18107	1.12764	0.284126
C	4.77598	0.0239379	0.857763
N	4.33449	-1.12215	0.284987
C	3.46897	-0.730936	-0.640465
N	3.34147	0.616562	-0.680268
H	4.29207	2.20467	0.487164
H	5.51586	0.0340561	1.67466
H	2.90056	-1.38954	-1.31676
H	2.72121	1.16709	-1.32327
