18
  This energy is -1.2579 and Call times are: 65424
C	0.51273	-0.784987	-0.638205
C	0.521911	0.53987	-0.962308
C	-0.216685	1.19935	0.0671013
C	-0.612011	0.21927	0.929389
O	-0.175297	-0.998867	0.514135
H	0.952981	-1.66311	-1.13853
H	1.00076	1.00599	-1.8384
H	-0.424356	2.27844	0.14784
H	-1.19944	0.258741	1.86138
C	4.00256	0.019799	0.624356
C	4.22081	0.604089	-0.605326
N	5.48732	0.382678	-1.03364
C	6.05263	-0.336235	-0.0733159
N	5.19831	-0.581423	0.948258
H	3.11071	-0.00972341	1.27032
H	3.48711	1.18144	-1.19116
H	7.08938	-0.709513	-0.0673233
H	5.40705	-1.1258	1.82081
