18
  This energy is -0.8351 and Call times are: 196243
C	0.39947	-1.01271	-0.318177
C	0.652198	-0.481621	0.912451
C	-0.00968914	0.783877	0.935591
C	-0.608459	0.914398	-0.282938
O	-0.369006	-0.173592	-1.06137
H	0.705036	-1.966	-0.779839
H	1.24523	-0.935487	1.72265
H	-0.0318781	1.50628	1.76729
H	-1.22384	1.72193	-0.712403
C	6.39478	-0.0748549	0.624414
C	6.12382	0.810308	-0.397451
N	4.87845	0.615667	-0.895133
C	4.37873	-0.386434	-0.184718
N	5.25451	-0.837467	0.744348
H	7.28854	-0.21149	1.25375
H	6.80461	1.5859	-0.78453
H	3.37667	-0.829198	-0.303316
H	5.09524	-1.61917	1.42614
