18
  This energy is -0.8138 and Call times are: 72860
C	0.993064	-0.398797	-0.375746
C	0.179051	-1.12222	0.445483
C	-0.958675	-0.295607	0.695303
C	-0.739475	0.859974	0.00468192
O	0.447754	0.814285	-0.655176
H	1.97255	-0.632033	-0.824591
H	0.361475	-2.13622	0.836148
H	-1.83376	-0.541278	1.31817
H	-1.34302	1.77689	-0.0965625
C	5.97739	-0.655719	0.59227
C	5.0869	0.253288	1.12318
N	4.34	0.830635	0.150899
C	4.76553	0.281885	-0.97889
N	5.75221	-0.620681	-0.765762
H	6.73029	-1.30344	1.06885
H	4.96995	0.502886	2.19036
H	4.38915	0.50475	-1.99028
H	6.25069	-1.18605	-1.49592
