18
  This energy is -1.5751 and Call times are: 121361
C	0.375519	0.789574	0.722468
C	-0.436813	-0.233106	1.11568
C	-0.689439	-1.00553	-0.0589079
C	-0.00918179	-0.386681	-1.06621
O	0.646829	0.711373	-0.606925
H	0.822811	1.62559	1.28484
H	-0.819719	-0.42436	2.13101
H	-1.30716	-1.91475	-0.135347
H	0.0866067	-0.625421	-2.13816
C	4.34306	-0.00733753	1.1755
C	5.13273	-0.810557	0.380252
N	4.94587	-0.532878	-0.932946
C	4.04372	0.43891	-0.952299
N	3.64882	0.791059	0.294151
H	4.2298	0.0506734	2.26973
H	5.83394	-1.58546	0.730505
H	3.6372	0.928782	-1.85174
H	2.94742	1.53126	0.541954
