18
  This energy is -1.1512 and Call times are: 171333
C	0.853392	0.259734	-0.700472
C	0.757293	0.778259	0.557412
C	-0.432827	0.223219	1.11925
C	-0.958932	-0.585486	0.155102
O	-0.186348	-0.575169	-0.96294
H	1.60313	0.404419	-1.49559
H	1.45453	1.4811	1.04112
H	-0.841794	0.41015	2.12518
H	-1.86513	-1.21308	0.141729
C	5.75185	0.520583	-0.740812
C	4.60655	-0.170855	-1.07447
N	3.97891	-0.639298	0.0314896
C	4.73198	-0.239989	1.04739
N	5.81276	0.463104	0.633661
H	6.50281	1.03239	-1.36343
H	4.22184	-0.340106	-2.09339
H	4.53818	-0.435039	2.11445
H	6.55559	0.884212	1.24369
