18
  This energy is -0.9164 and Call times are: 72220
C	0.892101	-0.652291	0.255093
C	1.0246	0.560341	-0.355105
C	-0.301504	1.06901	-0.506168
C	-1.1273	0.122312	0.0250533
O	-0.415289	-0.935767	0.494646
H	1.64033	-1.39901	0.567841
H	1.96212	1.04774	-0.6675
H	-0.596588	2.02921	-0.958975
H	-2.22421	0.0833543	0.127612
C	6.78117	0.12753	-0.447111
C	5.84786	1.12158	-0.242253
N	4.70736	0.618882	0.289784
C	4.93227	-0.682072	0.414513
N	6.1686	-1.02797	-0.0161086
H	7.80378	0.159568	-0.85548
H	5.977	2.19248	-0.468811
H	4.22597	-1.42697	0.815119
H	6.58179	-1.9926	-0.0207666
