18
  This energy is -0.654 and Call times are: 204998
C	-0.454236	-0.995899	0.29708
C	-0.913863	0.191494	0.786175
C	-0.100599	1.20185	0.187933
C	0.78421	0.542684	-0.613929
O	0.582625	-0.800226	-0.55945
H	-0.775437	-2.03474	0.47842
H	-1.74248	0.340896	1.49693
H	-0.173288	2.29037	0.342627
H	1.59459	0.909653	-1.26499
C	4.88209	0.356228	-0.0919863
C	5.45742	-0.732352	-0.712569
N	6.76663	-0.84769	-0.382129
C	7.00259	0.165485	0.440321
N	5.89779	0.920692	0.646878
H	3.85597	0.755832	-0.122831
H	4.95132	-1.4366	-1.39282
H	7.9664	0.400781	0.919843
H	5.8282	1.7737	1.25417
