18
  This energy is -0.6285 and Call times are: 54003
C	0.688509	0.587533	0.683492
C	-0.493725	0.0613845	1.11461
C	-1.06504	-0.596054	-0.0174214
C	-0.181489	-0.41362	-1.04037
O	0.895228	0.307071	-0.630137
H	1.46179	1.17382	1.20651
H	-0.920655	0.129413	2.12812
H	-2.023	-1.13911	-0.056128
H	-0.203132	-0.742091	-2.09246
C	6.36396	-0.382302	-0.327013
C	5.15882	-0.672234	-0.93094
N	4.13207	-0.0622342	-0.290479
C	4.69808	0.603593	0.70698
N	6.04241	0.442524	0.727718
H	7.3933	-0.694162	-0.565215
H	5.01178	-1.31064	-1.81732
H	4.1748	1.22481	1.45163
H	6.71215	0.865403	1.41611
