18
  This energy is -0.9693 and Call times are: 98246
C	-1.05178	0.33118	-0.26548
C	-0.571707	0.377079	1.01037
C	0.76778	-0.114062	0.942015
C	0.988003	-0.416732	-0.369574
O	-0.112608	-0.151056	-1.12129
H	-2.03094	0.609454	-0.688647
H	-1.10713	0.722173	1.90944
H	1.4774	-0.225479	1.77755
H	1.87261	-0.821832	-0.887851
C	4.65509	-0.984364	-0.0146189
C	5.33893	-0.459016	1.06126
N	5.97685	0.687537	0.722146
C	5.68984	0.872775	-0.559235
N	4.89575	-0.108389	-1.04948
H	4.03491	-1.8894	-0.113753
H	5.38346	-0.88674	2.07611
H	6.03496	1.71021	-1.18678
H	4.5326	-0.186866	-2.03092
