18
  This energy is -1.2514 and Call times are: 104193
C	-0.873532	0.274254	0.669423
C	-0.204636	-0.90837	0.789225
C	0.812738	-0.885414	-0.213042
C	0.675735	0.309211	-0.856838
O	-0.349244	1.03021	-0.330913
H	-1.72793	0.690767	1.22778
H	-0.407324	-1.71589	1.51098
H	1.55569	-1.67159	-0.422886
H	1.23691	0.757664	-1.69303
C	7.4116	-0.581569	-0.153392
C	6.5944	-0.0686636	-1.13841
N	5.50859	0.541198	-0.604001
C	5.65164	0.407143	0.707559
N	6.78346	-0.262732	1.02981
H	8.36393	-1.13252	-0.208824
H	6.76882	-0.127728	-2.22512
H	4.95719	0.780556	1.47732
H	7.11862	-0.494974	1.99676
