18
  This energy is -0.8611 and Call times are: 120091
C	-0.222941	-0.708615	0.857067
C	1.01904	-0.18597	0.645646
C	0.901596	0.646359	-0.509149
C	-0.401786	0.558863	-0.901465
O	-1.10306	-0.26441	-0.0783929
H	-0.604301	-1.39867	1.62755
H	1.92682	-0.368275	1.24297
H	1.70021	1.2377	-0.985201
H	-0.94656	1.02691	-1.73777
C	5.42635	-0.551281	0.925656
C	4.91432	0.544963	0.264434
N	5.72103	0.919647	-0.757984
C	6.72969	0.0591184	-0.731146
N	6.59819	-0.84756	0.265967
H	5.05224	-1.12248	1.79013
H	3.97726	1.07225	0.506782
H	7.59091	0.0475447	-1.41845
H	7.26238	-1.62761	0.493223
