18
  This energy is -1.2228 and Call times are: 16210
C	0.737213	-0.80873	0.298115
C	1.03224	0.519552	0.392969
C	-0.128931	1.21188	-0.0679818
C	-1.03103	0.245547	-0.403824
O	-0.518791	-0.994393	-0.186646
H	1.32725	-1.70783	0.540445
H	1.97317	0.966943	0.751562
H	-0.267306	2.30278	-0.13784
H	-2.05666	0.309749	-0.802863
C	4.84574	-0.745053	-0.51096
C	6.12675	-0.449613	-0.926751
N	6.71237	0.452273	-0.102033
C	5.79814	0.715338	0.821878
N	4.6551	0.018218	0.619201
H	4.08179	-1.42186	-0.925502
H	6.63892	-0.871058	-1.80704
H	5.91345	1.41042	1.66911
H	3.78872	0.052609	1.21035
