18
  This energy is -1.9822 and Call times are: 199950
C	0.552474	-0.861616	0.488663
C	0.0298421	0.172716	1.20796
C	-0.578553	1.04436	0.253913
C	-0.373995	0.465736	-0.964167
O	0.315135	-0.698992	-0.839582
H	1.10803	-1.76146	0.799935
H	0.0688403	0.30828	2.30075
H	-1.10505	1.99012	0.459927
H	-0.664961	0.778702	-1.98036
C	4.1815	1.14677	-0.149231
C	5.14988	0.399268	-0.785336
N	5.12037	-0.891275	-0.372857
C	4.13742	-0.94419	0.515759
N	3.54029	0.259187	0.685777
H	3.91227	2.21199	-0.229009
H	5.86932	0.768028	-1.53452
H	3.81294	-1.83862	1.07159
H	2.74112	0.474952	1.33079
