18
  This energy is -0.7806 and Call times are: 19733
C	-0.44201	-0.968258	-0.391797
C	-1.2176	0.0854366	-0.00635725
C	-0.310647	1.10321	0.419885
C	0.939104	0.581624	0.257289
O	0.877702	-0.682666	-0.237498
H	-0.704517	-1.96291	-0.788036
H	-2.31799	0.140458	-0.0207511
H	-0.568033	2.10425	0.801681
H	1.93853	1.00311	0.454124
C	4.79733	0.852074	-0.637485
C	4.8929	0.793669	0.736778
N	5.53598	-0.330954	1.13451
C	5.8382	-0.967812	0.0112548
N	5.41408	-0.295021	-1.08468
H	4.34903	1.60368	-1.30656
H	4.50936	1.54286	1.44844
H	6.36933	-1.93019	-0.0660019
H	5.53251	-0.59085	-2.08453
