18
  This energy is -1.3095 and Call times are: 74838
C	0.214887	0.846812	-0.72328
C	1.1343	-0.11856	-0.434978
C	0.502461	-0.99325	0.500875
C	-0.747275	-0.485173	0.701846
O	-0.940021	0.638534	-0.0378461
H	0.259831	1.72339	-1.39024
H	2.15503	-0.205947	-0.840639
H	0.93591	-1.89365	0.965084
H	-1.58147	-0.825636	1.33703
C	4.59739	0.909204	0.719298
C	4.87069	0.967172	-0.630922
N	5.05161	-0.272964	-1.14652
C	4.89116	-1.09714	-0.120066
N	4.61565	-0.432815	1.02726
H	4.39786	1.70155	1.45816
H	4.94057	1.8816	-1.2423
H	4.96456	-2.19613	-0.15298
H	4.44791	-0.85888	1.9715
