18
  This energy is -0.8156 and Call times are: 22508
C	0.777088	0.775786	-0.284062
C	0.452354	0.508259	1.01338
C	-0.547847	-0.510212	0.964072
C	-0.746027	-0.775151	-0.359145
O	0.0548437	0.00112099	-1.13569
H	1.49595	1.48481	-0.726524
H	0.874773	0.980724	1.91473
H	-1.05511	-0.984409	1.81959
H	-1.41884	-1.48323	-0.870213
C	5.88589	1.06411	0.322268
C	4.58033	0.620664	0.327826
N	4.49752	-0.660274	-0.106743
C	5.74695	-1.01016	-0.380854
N	6.6213	-0.0049382	-0.138706
H	6.3289	2.03247	0.604319
H	3.69666	1.20204	0.637616
H	6.07754	-1.99002	-0.761407
H	7.66128	-0.0343357	-0.275968
