18
  This energy is -1.1313 and Call times are: 15357
C	0.125325	0.996488	0.526978
C	-0.878132	0.126697	0.838284
C	-0.704649	-0.996305	-0.0270986
C	0.389507	-0.71363	-0.790833
O	0.909023	0.499432	-0.465879
H	0.386243	1.98742	0.933448
H	-1.66187	0.262307	1.60082
H	-1.32714	-1.90452	-0.0689321
H	0.891809	-1.28524	-1.58846
C	4.5443	-0.352135	1.11367
C	3.83955	-1.00446	0.124258
N	3.88079	-0.314127	-1.04118
C	4.60835	0.762363	-0.775784
N	5.03175	0.785585	0.510211
H	4.72733	-0.608476	2.16929
H	3.30206	-1.96085	0.230452
H	4.86173	1.56541	-1.48652
H	5.61939	1.52869	0.961576
