18
  This energy is -1.1371 and Call times are: 67790
C	-0.483624	-0.433898	-0.929645
C	0.20071	-1.20348	-0.0353241
C	0.653439	-0.310274	0.983177
C	0.205795	0.926277	0.621337
O	-0.490554	0.869377	-0.54437
H	-1.00452	-0.690334	-1.86675
H	0.369742	-2.29104	-0.0876079
H	1.24328	-0.567611	1.87758
H	0.314822	1.91265	1.10138
C	4.39877	-0.126324	0.852737
C	5.75829	-0.330744	0.957808
N	6.3808	-0.0929647	-0.222215
C	5.41115	0.257635	-1.05617
N	4.19749	0.252787	-0.455678
H	3.58734	-0.220657	1.59181
H	6.30116	-0.645543	1.86392
H	5.5344	0.527988	-2.11728
H	3.27831	0.492208	-0.901817
