18
  This energy is -0.9878 and Call times are: 17557
C	0.941833	0.34946	0.526526
C	0.830852	0.325853	-0.832702
C	-0.480872	-0.167039	-1.10939
C	-1.05567	-0.401118	0.105181
O	-0.201001	-0.0912099	1.11538
H	1.77002	0.654075	1.18726
H	1.59594	0.625471	-1.56684
H	-0.935019	-0.325559	-2.10071
H	-2.05262	-0.782313	0.380928
C	5.64044	-0.880124	-0.743412
C	4.72432	0.13338	-0.929592
N	4.70694	0.977197	0.130683
C	5.60886	0.48903	0.971431
N	6.19938	-0.630413	0.490049
H	5.92471	-1.73295	-1.38014
H	4.07556	0.270873	-1.80997
H	5.87635	0.911953	1.95317
H	6.94159	-1.19966	0.965794
