18
  This energy is -1.0454 and Call times are: 163420
C	0.795367	-0.633605	-0.502331
C	0.219474	0.43882	-1.11766
C	-0.718533	0.970041	-0.180606
C	-0.633038	0.175344	0.924618
O	0.286619	-0.809137	0.745618
H	1.56826	-1.34285	-0.841226
H	0.433714	0.81779	-2.12987
H	-1.37616	1.84278	-0.321839
H	-1.16529	0.205237	1.88954
C	5.822	0.842265	-0.000756054
C	5.39046	0.106192	-1.08386
N	4.43064	-0.779298	-0.721692
C	4.26735	-0.593266	0.581133
N	5.08349	0.373884	1.06293
H	6.57718	1.63964	0.0854798
H	5.75447	0.198186	-2.12014
H	3.56376	-1.13811	1.23101
H	5.14246	0.704038	2.0573
