18
  This energy is -1.1076 and Call times are: 197428
C	-0.768399	-0.833969	-0.0214587
C	0.447379	-0.945133	-0.629654
C	1.12146	0.290088	-0.384788
C	0.258101	1.04704	0.351427
O	-0.901016	0.376205	0.582614
H	-1.61561	-1.53538	0.0527698
H	0.831022	-1.81019	-1.1941
H	2.13166	0.573164	-0.72163
H	0.348811	2.06431	0.766364
C	5.25431	-1.06079	0.374602
C	6.46709	-0.739994	-0.197597
N	6.52686	0.57738	-0.509788
C	5.35562	1.07197	-0.132698
N	4.5531	0.123897	0.406482
H	4.85399	-2.0164	0.748881
H	7.30004	-1.4355	-0.390763
H	5.03357	2.12143	-0.228321
H	3.58179	0.264501	0.778019
