18
  This energy is -1.0419 and Call times are: 57334
C	-0.313921	-0.743181	-0.797205
C	-0.819989	-0.772985	0.469042
C	-0.191617	0.303387	1.16667
C	0.642967	0.895928	0.265155
O	0.580985	0.2697	-0.939424
H	-0.507181	-1.37879	-1.67692
H	-1.5614	-1.48183	0.871449
H	-0.348966	0.595018	2.21752
H	1.32402	1.75798	0.356125
C	5.19015	-1.15758	0.0946072
C	3.96906	-0.517211	0.0902432
N	4.1209	0.823567	-0.0353327
C	5.43121	1.01426	-0.108594
N	6.11936	-0.149611	-0.0348373
H	5.45481	-2.22367	0.177889
H	2.98122	-0.998615	0.175454
H	5.9403	1.98553	-0.21672
H	7.16209	-0.262616	-0.0696306
