18
  This energy is -1.3255 and Call times are: 69724
C	0.652209	0.921284	-0.110728
C	-0.449163	0.708497	-0.886664
C	-0.996876	-0.537919	-0.454719
C	-0.181854	-0.976768	0.547041
O	0.830489	-0.0979664	0.770383
H	1.38189	1.74729	-0.0878246
H	-0.836985	1.36354	-1.68329
H	-1.89379	-1.04141	-0.849853
H	-0.214257	-1.88503	1.17095
C	4.61076	1.07131	0.262022
C	4.09478	0.144626	1.14302
N	3.71529	-0.984854	0.497436
C	3.99479	-0.75972	-0.779208
N	4.53638	0.466185	-0.972673
H	5.01222	2.08477	0.421025
H	3.98952	0.270774	2.23291
H	3.82316	-1.45846	-1.6138
H	4.84149	0.87735	-1.8887
