18
  This energy is -0.8999 and Call times are: 80124
C	0.0407359	-0.617177	0.950702
C	-1.1262	-0.371917	0.288519
C	-0.77385	0.426913	-0.841896
C	0.577294	0.599288	-0.770705
O	1.09124	-0.0315855	0.317815
H	0.25371	-1.18618	1.87055
H	-2.134	-0.718739	0.568052
H	-1.45415	0.822598	-1.61308
H	1.28053	1.14177	-1.42372
C	5.29735	-1.06068	0.319638
C	5.39146	0.110288	1.04153
N	4.82655	1.14403	0.371638
C	4.38367	0.616382	-0.761529
N	4.64337	-0.710239	-0.840403
H	5.63812	-2.0844	0.54191
H	5.85685	0.227746	2.03373
H	3.86217	1.1563	-1.56823
H	4.39405	-1.34996	-1.63403
