18
  This energy is -1.1267 and Call times are: 131247
C	0.961	0.0250852	-0.601873
C	0.908821	0.404917	0.707088
C	-0.451091	0.235235	1.10954
C	-1.10989	-0.233308	0.0109781
O	-0.262884	-0.367652	-1.04332
H	1.79673	-0.0112082	-1.31985
H	1.74417	0.76815	1.32705
H	-0.879769	0.44075	2.10356
H	-2.16634	-0.505697	-0.147028
C	5.18857	-0.740541	0.91041
C	4.4862	-0.946089	-0.258167
N	4.60147	0.116789	-1.09094
C	5.37242	0.978441	-0.441465
N	5.75246	0.507863	0.77003
H	5.32256	-1.3732	1.80222
H	3.89834	-1.84227	-0.515314
H	5.6896	1.96843	-0.80692
H	6.36076	1.00021	1.46919
