18
  This energy is -1.2008 and Call times are: 39883
C	-1.07027	-0.327855	0.182876
C	-0.632129	0.930737	0.473317
C	0.748633	0.957915	0.108796
C	1.03237	-0.286468	-0.37222
O	-0.0669103	-1.08469	-0.334319
H	-2.05895	-0.802118	0.296126
H	-1.22208	1.7571	0.901318
H	1.44209	1.80953	0.197978
H	1.96488	-0.722917	-0.766166
C	4.96052	1.13815	0.265031
C	5.2831	0.608819	-0.966589
N	5.36282	-0.742903	-0.911779
C	5.09073	-1.05097	0.349049
N	4.84119	0.0487113	1.09873
H	4.81237	2.17832	0.596169
H	5.45975	1.17803	-1.89376
H	5.06071	-2.06603	0.776801
H	4.60232	0.0677783	2.12042
