18
  This energy is -2.1804 and Call times are: 83574
C	-0.220597	0.103771	-1.10769
C	-0.223335	1.17168	-0.259192
C	0.0940119	0.646934	1.03079
C	0.262662	-0.695313	0.856708
O	0.0742732	-1.04446	-0.443143
H	-0.410196	0.0303675	-2.19116
H	-0.428271	2.22343	-0.515943
H	0.184048	1.21094	1.97307
H	0.514621	-1.49885	1.56812
C	3.78715	-1.01097	-0.514942
C	4.67943	-0.0775395	-0.998362
N	4.80198	0.968663	-0.145746
C	3.98881	0.685349	0.862778
N	3.35396	-0.497749	0.687197
H	3.44132	-1.97206	-0.92755
H	5.23698	-0.140228	-1.94708
H	3.82036	1.30941	1.75519
H	2.66333	-0.939848	1.34205
