18
  This energy is -1.1077 and Call times are: 174308
C	-0.65241	0.19411	0.907239
C	-0.848298	-0.873842	0.0817208
C	0.156352	-0.776308	-0.928864
C	0.87748	0.342636	-0.631688
O	0.397398	0.947713	0.486531
H	-1.18452	0.524107	1.81455
H	-1.62259	-1.65221	0.175063
H	0.315878	-1.46402	-1.77485
H	1.74324	0.808343	-1.13051
C	5.47942	-0.92255	-0.269038
C	5.27458	0.205574	-1.03489
N	4.43061	1.06814	-0.418278
C	4.11308	0.477372	0.725746
N	4.72003	-0.725321	0.862604
H	6.09143	-1.82176	-0.443429
H	5.72065	0.412572	-2.02131
H	3.44054	0.881276	1.49955
H	4.6294	-1.38237	1.67583
