18
  This energy is -1.1466 and Call times are: 103648
C	-0.401992	-1.03281	-0.241052
C	-0.763426	0.0753222	-0.949418
C	-0.0596551	1.16652	-0.354346
C	0.669716	0.628875	0.665129
O	0.472712	-0.713214	0.748777
H	-0.693161	-2.09137	-0.340707
H	-1.45614	0.119851	-1.80514
H	-0.0982158	2.22531	-0.656955
H	1.35778	1.08861	1.39346
C	5.42758	0.543275	0.636442
C	4.2639	1.09729	0.146492
N	3.54071	0.183095	-0.544702
C	4.25304	-0.933821	-0.483782
N	5.39948	-0.768176	0.217522
H	6.24639	0.975054	1.23365
H	3.93317	2.14028	0.279348
H	3.9816	-1.9017	-0.935179
H	6.12811	-1.49945	0.406192
