18
  This energy is -1.451 and Call times are: 184762
C	-0.371506	-0.959616	-0.476991
C	0.85725	-0.862298	0.107014
C	0.957536	0.47974	0.585545
C	-0.21879	1.08405	0.251721
O	-1.04227	0.219711	-0.39775
H	-0.878821	-1.80104	-0.976882
H	1.61682	-1.65595	0.192271
H	1.81032	0.933505	1.11559
H	-0.586568	2.10994	0.417659
C	4.56696	0.999078	0.576739
C	5.21952	-0.109725	1.07259
N	5.31484	-1.08149	0.132853
C	4.72366	-0.577456	-0.941896
N	4.25615	0.674724	-0.724943
H	4.31033	1.96382	1.04252
H	5.62326	-0.225949	2.09157
H	4.60543	-1.08251	-1.91409
H	3.7528	1.28266	-1.41655
