18
  This energy is -1.6349 and Call times are: 90560
C	0.75088	-0.3444	-0.777154
C	0.145123	0.876177	-0.837341
C	-0.718567	0.940466	0.298451
C	-0.564355	-0.246501	0.95244
O	0.329341	-1.04333	0.309496
H	1.49001	-0.82712	-1.4374
H	0.29178	1.6533	-1.60459
H	-1.3747	1.77735	0.586915
H	-1.02697	-0.639769	1.87254
C	4.21585	0.543643	-1.03736
C	4.33431	-0.808322	-0.793848
N	4.13926	-1.08748	0.517844
C	3.9007	0.086834	1.08591
N	3.93588	1.1016	0.190026
H	4.30789	1.12866	-1.96624
H	4.55703	-1.58733	-1.54111
H	3.69411	0.260574	2.15425
H	3.77964	2.11948	0.391948
