18
  This energy is -0.4973 and Call times are: 172011
C	-0.940069	-0.169176	0.611597
C	0.309801	-0.313998	1.13812
C	1.21809	-0.0203853	0.075617
C	0.443089	0.27794	-1.00639
O	-0.877501	0.192043	-0.697073
H	-1.94035	-0.292822	1.05815
H	0.566407	-0.598996	2.17109
H	2.31895	-0.0324729	0.120997
H	0.706612	0.562827	-2.03821
C	6.69993	-1.06879	0.450344
C	5.49607	-0.574957	-0.00571753
N	5.62903	0.695464	-0.458334
C	6.91051	0.988652	-0.283728
N	7.59842	-0.0425605	0.261224
H	6.97178	-2.0453	0.881702
H	4.53394	-1.11258	-0.016284
H	7.39783	1.9438	-0.537598
H	8.62132	-0.0574888	0.495109
