18
  This energy is -0.852 and Call times are: 118076
C	-0.244828	-1.08245	-0.234023
C	0.71114	-0.729316	0.672507
C	0.725766	0.69884	0.689039
C	-0.222555	1.09236	-0.208848
O	-0.825243	0.0175031	-0.781963
H	-0.601442	-2.06867	-0.573794
H	1.34266	-1.40659	1.26966
H	1.37088	1.34903	1.30156
H	-0.558819	2.09328	-0.525617
C	4.66516	-0.211014	0.519292
C	5.88853	-0.744926	0.864882
N	6.87011	-0.283565	0.052384
C	6.25801	0.533456	-0.794039
N	4.92766	0.611063	-0.553773
H	3.65987	-0.35315	0.946771
H	6.08051	-1.45477	1.68593
H	6.73629	1.10037	-1.60896
H	4.22924	1.18762	-1.08391
