18
  This energy is -1.3405 and Call times are: 85367
C	0.228474	-0.831154	0.737145
C	0.904477	0.353492	0.739494
C	0.338838	1.12854	-0.318557
C	-0.632887	0.349093	-0.874064
O	-0.71406	-0.851159	-0.241753
H	0.322226	-1.72767	1.37174
H	1.71967	0.65165	1.41821
H	0.628273	2.1471	-0.623291
H	-1.32617	0.530974	-1.71164
C	5.03038	1.12913	-0.0319325
C	3.95738	0.562067	-0.686349
N	3.87156	-0.764952	-0.425263
C	4.88745	-1.02017	0.388031
N	5.61609	0.0894538	0.655241
H	5.40607	2.1644	-0.00741981
H	3.24361	1.08668	-1.34222
H	5.14367	-2.00206	0.817531
H	6.4654	0.146845	1.26896
