18
  This energy is -1.7268 and Call times are: 88104
C	-0.171208	0.967852	-0.565996
C	-0.552764	0.804181	0.733234
C	-0.172905	-0.526312	1.08765
C	0.407246	-1.05823	-0.0262851
O	0.416766	-0.159586	-1.04577
H	-0.260517	1.82648	-1.25158
H	-1.05167	1.54596	1.37741
H	-0.318729	-1.02122	2.06125
H	0.846474	-2.05085	-0.218734
C	3.51243	0.239469	1.04404
C	3.87448	-1.00174	0.565016
N	4.40843	-0.909409	-0.677114
C	4.37774	0.384159	-0.967567
N	3.8464	1.11871	0.0382672
H	3.05599	0.548968	1.99767
H	3.75999	-1.96223	1.09341
H	4.73152	0.847579	-1.90262
H	3.71407	2.15968	0.0497556
