18
  This energy is -1.2302 and Call times are: 2100
C	0.872024	0.39621	0.607448
C	0.915638	-0.806412	-0.0345585
C	-0.350384	-0.951327	-0.679776
C	-1.05588	0.175532	-0.375096
O	-0.324637	1.0095	0.410256
H	1.61651	0.920819	1.22855
H	1.75512	-1.5199	-0.0520217
H	-0.687661	-1.79951	-1.29696
H	-2.07294	0.498507	-0.651747
C	5.07852	0.622713	-0.982574
C	4.54066	-0.643617	-0.891692
N	4.4803	-1.0575	0.397326
C	4.97882	-0.0517564	1.10343
N	5.35387	0.984892	0.317118
H	5.27817	1.27017	-1.85118
H	4.19507	-1.26604	-1.73312
H	5.09214	-0.0218812	2.1991
H	5.7743	1.89175	0.636658
