18
  This energy is -0.9535 and Call times are: 66862
C	-0.585516	-0.222768	0.945487
C	-0.194622	1.03987	0.608842
C	0.507535	0.914904	-0.628686
C	0.483734	-0.413061	-0.939032
O	-0.179713	-1.12266	0.0113966
H	-1.14945	-0.607129	1.81122
H	-0.381941	1.9663	1.17517
H	0.972866	1.72519	-1.21264
H	0.896782	-0.971294	-1.7952
C	4.1529	-0.256387	0.0593353
C	5.11432	-0.927342	-0.666363
N	6.33398	-0.359362	-0.504056
C	6.12998	0.660076	0.319202
N	4.83108	0.764275	0.687436
H	3.07023	-0.427301	0.169571
H	4.94978	-1.81108	-1.30415
H	6.89661	1.36222	0.684583
H	4.41912	1.48522	1.32914
