18
  This energy is -1.8185 and Call times are: 198541
C	0.354063	-0.653432	0.856777
C	0.773856	0.634657	0.698745
C	0.118283	1.1184	-0.474428
C	-0.64425	0.083214	-0.929741
O	-0.512374	-1.00681	-0.12883
H	0.59505	-1.41263	1.61887
H	1.47485	1.18859	1.34362
H	0.209922	2.12197	-0.920009
H	-1.31543	-0.00291005	-1.8
C	4.69102	-0.292077	-1.0642
C	5.99757	-0.368237	-0.630285
N	6.11106	0.0493352	0.653952
C	4.8796	0.383276	1.01537
N	3.98728	0.195489	0.0143255
H	4.22769	-0.541997	-2.03188
H	6.86037	-0.717006	-1.22086
H	4.57545	0.770794	2.00104
H	2.95586	0.385169	0.0525069
