18
  This energy is -1.4733 and Call times are: 22151
C	-0.0499531	0.0659761	-1.13117
C	-0.865659	0.798813	-0.320033
C	-0.506879	0.446223	1.01678
C	0.4964	-0.47095	0.904541
O	0.788276	-0.715048	-0.400157
H	0.0313634	0.0110942	-2.22918
H	-1.64212	1.51576	-0.631798
H	-0.949857	0.835436	1.94758
H	1.07692	-1.01643	1.66658
C	5.0078	1.10781	0.338643
C	5.93881	0.10394	0.175496
N	5.34936	-1.0488	-0.224807
C	4.05758	-0.761163	-0.309675
N	3.80068	0.526813	0.0200366
H	5.11525	2.15944	0.648584
H	7.02528	0.190775	0.339456
H	3.2565	-1.45637	-0.608309
H	2.86099	0.993847	0.0308949
