18
  This energy is -0.8528 and Call times are: 6817
C	0.864249	0.123318	0.724063
C	-0.366022	-0.310556	1.12226
C	-1.17247	-0.334693	-0.0563701
C	-0.363821	0.0865624	-1.07077
O	0.883587	0.370579	-0.612163
H	1.79623	0.29568	1.28705
H	-0.674667	-0.585975	2.14352
H	-2.23071	-0.632546	-0.130637
H	-0.553937	0.225341	-2.14773
C	4.72569	0.416367	-0.239962
C	5.83257	0.460216	-1.06095
N	6.90599	-0.11347	-0.464999
C	6.4667	-0.511703	0.721195
N	5.15827	-0.215181	0.904682
H	3.69515	0.777832	-0.38444
H	5.87588	0.895519	-2.07263
H	7.06097	-1.02535	1.49401
H	4.58295	-0.426177	1.75659
