18
  This energy is -1.0732 and Call times are: 117273
C	-1.04433	-0.097764	0.431523
C	0.0683823	-0.0382099	1.21809
C	1.17449	0.0810406	0.322316
C	0.640062	0.0838322	-0.932574
O	-0.713807	-0.0245982	-0.884688
H	-2.11351	-0.191053	0.683323
H	0.10644	-0.0746055	2.31869
H	2.24067	0.155487	0.590299
H	1.10993	0.156468	-1.92716
C	5.6191	-0.37739	1.03297
C	5.55329	-1.09218	-0.144272
N	5.0125	-0.347109	-1.13872
C	4.74384	0.82544	-0.580529
N	5.09127	0.857312	0.727852
H	5.99177	-0.650857	2.03291
H	5.88633	-2.13215	-0.29391
H	4.2927	1.69548	-1.08425
H	4.9798	1.66811	1.3847
