18
  This energy is -0.6766 and Call times are: 57127
C	1.12474	-0.141413	0.0369837
C	0.415003	-0.231709	-1.12426
C	-0.948278	0.00289247	-0.768537
C	-0.951279	0.21584	0.578689
O	0.30627	0.131414	1.08707
H	2.20175	-0.249458	0.245859
H	0.811689	-0.442386	-2.13042
H	-1.81875	0.0102752	-1.44405
H	-1.77114	0.43422	1.28253
C	6.63049	-0.350591	0.990334
C	5.32217	-0.586187	0.624371
N	5.04612	-0.0368844	-0.583344
C	6.17888	0.537301	-0.965162
N	7.16422	0.376104	-0.0504493
H	7.20048	-0.639012	1.88781
H	4.57246	-1.14268	1.21013
H	6.34187	1.08884	-1.90509
H	8.14744	0.736109	-0.120704
