18
  This energy is -1.2657 and Call times are: 14463
C	-0.464715	0.692673	-0.768534
C	0.138013	-0.481346	-1.11317
C	0.592348	-1.06152	0.110388
C	0.22715	-0.190823	1.09471
O	-0.419461	0.886099	0.575917
H	-0.956887	1.46829	-1.37799
H	0.251308	-0.897094	-2.12728
H	1.12795	-2.01654	0.233569
H	0.367141	-0.222465	2.18771
C	5.82392	-0.152444	-0.314092
C	4.7069	-0.553563	-1.01587
N	3.57024	-0.215123	-0.360134
C	3.98056	0.393638	0.744253
N	5.33117	0.456564	0.81838
H	6.89876	-0.253893	-0.533116
H	4.70076	-1.0811	-1.98361
H	3.3343	0.812426	1.53241
H	5.89545	0.887225	1.59128
