18
  This energy is -0.807 and Call times are: 85833
C	1.01149	-0.00878018	-0.513041
C	0.876357	-0.142543	0.837596
C	-0.526768	-0.0828644	1.09797
C	-1.1252	0.0820989	-0.116542
O	-0.200776	0.129456	-1.11163
H	1.90336	0.00404712	-1.16085
H	1.68375	-0.27041	1.57642
H	-1.02357	-0.15526	2.07881
H	-2.18564	0.177964	-0.402066
C	6.67932	-0.652708	-0.00081549
C	5.4228	-1.04541	-0.410804
N	4.52682	-0.0380625	-0.273002
C	5.22485	0.975715	0.220598
N	6.52781	0.655159	0.40257
H	7.63859	-1.19336	0.0313639
H	5.14668	-2.03755	-0.80357
H	4.83143	1.97503	0.467215
H	7.27942	1.28325	0.779189
