18
  This energy is -3.0134 and Call times are: 12235
C	-0.150312	-0.931248	-0.629749
C	0.0656058	-0.986462	0.715875
C	0.205181	0.368583	1.1454
C	0.0622335	1.13223	0.0243318
O	-0.155518	0.35486	-1.06897
H	-0.312702	-1.72498	-1.37732
H	0.12103	-1.89069	1.34308
H	0.39034	0.723856	2.17184
H	0.0940491	2.2239	-0.125603
C	4.17751	-0.092939	-1.17301
C	5.29601	-0.0233646	-0.369729
N	4.95326	0.0782274	0.937447
C	3.62716	0.071703	0.945076
N	3.11196	-0.0298292	-0.303061
H	4.06805	-0.17999	-2.2657
H	6.34417	-0.0446517	-0.70995
H	2.98329	0.138802	1.83679
H	2.09463	-0.0555704	-0.559258
