18
  This energy is -0.977 and Call times are: 150685
C	0.765641	0.316602	0.774569
C	-0.463407	0.900634	0.681176
C	-1.12886	0.240974	-0.396848
C	-0.247722	-0.687934	-0.867053
O	0.914472	-0.655648	-0.163295
H	1.6125	0.500286	1.456
H	-0.861467	1.71434	1.30849
H	-2.14546	0.441533	-0.771549
H	-0.326783	-1.4221	-1.68559
C	5.55638	-1.13739	-0.16036
C	4.49667	-0.620835	0.55471
N	4.50577	0.734117	0.531595
C	5.5671	1.05691	-0.195052
N	6.23366	-0.0364863	-0.635236
H	5.86615	-2.17585	-0.3583
H	3.72569	-1.20154	1.08689
H	5.90197	2.07874	-0.435812
H	7.10111	-0.0441349	-1.22576
