18
  This energy is -1.6463 and Call times are: 212362
C	0.69562	0.781365	-0.438158
C	0.980503	-0.552052	-0.473012
C	-0.117447	-1.20332	0.167669
C	-0.976347	-0.210393	0.537477
O	-0.495671	1.00815	0.175364
H	1.25138	1.65768	-0.810262
H	1.87416	-1.02916	-0.906408
H	-0.244321	-2.28578	0.329783
H	-1.94827	-0.24026	1.05682
C	4.2506	-0.983146	0.596921
C	4.89883	-0.893895	-0.616741
N	5.01756	0.396436	-1.01355
C	4.44516	1.10498	-0.0497295
N	3.96716	0.318954	0.943885
H	3.97997	-1.85212	1.21755
H	5.28298	-1.73743	-1.21318
H	4.34868	2.2023	-0.0212223
H	3.47449	0.640225	1.81298
