18
  This energy is -1.0401 and Call times are: 19894
C	0.883404	0.0860567	0.706111
C	0.776254	-0.918108	-0.210703
C	-0.453019	-0.688056	-0.900689
C	-0.988543	0.436381	-0.344607
O	-0.18564	0.922452	0.638294
H	1.66068	0.313257	1.45409
H	1.49114	-1.73853	-0.383744
H	-0.880729	-1.29464	-1.71507
H	-1.92168	0.983676	-0.556673
C	4.55995	-0.415124	0.815529
C	4.63597	0.880436	0.349815
N	5.6043	1.00584	-0.589924
C	6.12703	-0.207312	-0.706755
N	5.53142	-1.0994	0.119694
H	3.90513	-0.882961	1.56778
H	4.00945	1.72693	0.675043
H	6.94773	-0.49769	-1.3823
H	5.76515	-2.11822	0.212677
