18
  This energy is -1.1712 and Call times are: 75958
C	0.680541	-0.536	-0.732099
C	0.97849	-0.423579	0.59416
C	-0.102433	0.305587	1.17729
C	-0.965497	0.574379	0.155897
O	-0.503137	0.0677651	-1.01738
H	1.22132	-1.01483	-1.56488
H	1.87001	-0.814871	1.11008
H	-0.215619	0.592049	2.23522
H	-1.92871	1.11011	0.134483
C	5.17579	-0.225128	-1.12176
C	4.98426	1.01462	-0.549488
N	4.67782	0.903518	0.765906
C	4.67923	-0.400189	1.00874
N	4.97387	-1.1232	-0.0976158
H	5.43291	-0.521939	-2.151
H	5.0617	1.98725	-1.06216
H	4.47118	-0.879517	1.97889
H	5.03655	-2.16871	-0.162814
