18
  This energy is -1.0715 and Call times are: 115341
C	-0.327052	-0.257623	-1.05502
C	0.899261	0.271984	-0.779257
C	0.93665	0.455045	0.636797
C	-0.270116	0.0211421	1.10136
O	-1.0544	-0.417547	0.081818
H	-0.795702	-0.560266	-2.00582
H	1.69745	0.509874	-1.50065
H	1.76959	0.863088	1.23162
H	-0.686745	-0.0267901	2.12086
C	4.57587	-0.367104	0.629527
C	4.79003	0.903043	0.137586
N	5.95947	0.972442	-0.543659
C	6.46886	-0.250003	-0.474607
N	5.67201	-1.09433	0.222335
H	3.7486	-0.790809	1.22083
H	4.12167	1.77061	0.262004
H	7.42226	-0.581362	-0.916717
H	5.85444	-2.10951	0.415667
