18
  This energy is -0.7253 and Call times are: 3999
C	-0.821309	-0.310765	-0.717829
C	0.370854	0.194554	-1.14652
C	1.12913	0.462381	0.0339049
C	0.333406	0.0970832	1.07973
O	-0.861472	-0.377291	0.638996
H	-1.71049	-0.65548	-1.2708
H	0.684781	0.361912	-2.18937
H	2.14788	0.878682	0.0882492
H	0.499293	0.125023	2.1692
C	5.33343	-0.92736	-0.554445
C	4.9972	0.398019	-0.731831
N	5.73579	1.20127	0.0717818
C	6.5272	0.377337	0.745146
N	6.32279	-0.916856	0.403286
H	4.95142	-1.84661	-1.02623
H	4.23492	0.789071	-1.42527
H	7.2748	0.668678	1.50043
H	6.82272	-1.75297	0.793465
