18
  This energy is -1.117 and Call times are: 16609
C	0.100133	-0.104646	-1.12491
C	0.598388	-1.03216	-0.257823
C	0.279386	-0.555579	1.05032
C	-0.385647	0.62109	0.867136
O	-0.504123	0.911868	-0.455144
H	0.110431	-0.0533975	-2.22605
H	1.13657	-1.95896	-0.51373
H	0.521062	-1.03941	2.01032
H	-0.819208	1.33545	1.58614
C	5.43916	1.10708	0.210816
C	6.16547	0.127381	-0.43246
N	5.4679	-1.03244	-0.501032
C	4.31321	-0.773257	0.0974278
N	4.24719	0.503403	0.543938
H	5.67819	2.15613	0.447225
H	7.18035	0.236636	-0.848329
H	3.48102	-1.48209	0.236109
H	3.44149	0.948553	1.04788
