18
  This energy is -1.6141 and Call times are: 170144
C	0.0943569	0.0903424	-1.12665
C	0.838995	-0.791354	-0.399668
C	0.441547	-0.610559	0.960283
C	-0.51088	0.365659	0.944296
O	-0.735441	0.805146	-0.321972
H	0.0621221	0.302565	-2.20793
H	1.59256	-1.49814	-0.782661
H	0.825687	-1.1493	1.84135
H	-1.09612	0.829441	1.75525
C	6.18133	-0.397941	1.03987
C	5.57542	0.815089	0.789729
N	5.26543	0.944938	-0.523115
C	5.67747	-0.183246	-1.08529
N	6.23678	-1.02554	-0.184565
H	6.56422	-0.844093	1.97147
H	5.35637	1.59891	1.53303
H	5.59418	-0.444286	-2.1526
H	6.6365	-1.97566	-0.381437
