18
  This energy is -1.514 and Call times are: 129888
C	-0.0700504	1.08401	-0.326208
C	-0.686135	0.618273	0.798026
C	-0.3688	-0.772488	0.870136
C	0.41319	-1.03385	-0.216397
O	0.60587	0.0885686	-0.958058
H	-0.036475	2.08875	-0.77857
H	-1.30225	1.19612	1.50555
H	-0.689952	-1.48735	1.64469
H	0.888306	-1.96422	-0.568425
C	4.77481	-0.842043	-0.818817
C	5.72865	-0.515319	0.121706
N	5.31015	0.506366	0.907539
C	4.10129	0.812304	0.456242
N	3.73327	0.02763	-0.584162
H	4.76385	-1.60638	-1.61204
H	6.7113	-0.998488	0.247343
H	3.44219	1.60217	0.851134
H	2.82716	0.0730842	-1.11157
