18
  This energy is -1.3551 and Call times are: 41731
C	0.452106	0.622469	0.833387
C	0.153003	1.14652	-0.389841
C	-0.390126	0.0692933	-1.15451
C	-0.374976	-1.01794	-0.331055
O	0.136184	-0.698264	0.88695
H	0.887132	1.07876	1.73771
H	0.300085	2.18725	-0.720505
H	-0.747879	0.108753	-2.19593
H	-0.695661	-2.0605	-0.490691
C	4.09626	-0.517152	1.01261
C	4.44789	0.803634	0.830879
N	4.73848	1.05762	-0.468181
C	4.56778	-0.101193	-1.08998
N	4.18062	-1.08197	-0.240404
H	3.8018	-1.07645	1.91484
H	4.49711	1.57786	1.61383
H	4.71262	-0.287259	-2.16638
H	3.98246	-2.08209	-0.488879
