18
  This energy is -1.4359 and Call times are: 141978
C	-0.220635	0.301269	-1.07096
C	1.02992	-0.0480951	-0.653324
C	0.906153	-0.3572	0.735652
C	-0.409114	-0.169438	1.04418
O	-1.11193	0.232769	-0.0472825
H	-0.601317	0.61403	-2.05712
H	1.9475	-0.0844819	-1.26227
H	1.70869	-0.680897	1.41775
H	-0.962011	-0.286766	1.99064
C	4.92265	-0.783117	0.86993
C	4.75648	0.579419	1.00043
N	4.64721	1.1766	-0.211157
C	4.74521	0.188298	-1.08995
N	4.91231	-1.01295	-0.487736
H	5.0435	-1.57891	1.62203
H	4.71349	1.14228	1.9471
H	4.70121	0.288535	-2.18642
H	5.01452	-1.94232	-0.964264
