18
  This energy is -1.064 and Call times are: 29743
C	0.368149	0.0124279	1.07271
C	-0.510368	-0.924077	0.612776
C	-0.729126	-0.612242	-0.763822
C	0.0350222	0.487292	-1.02358
O	0.711866	0.882338	0.0867481
H	0.819181	0.165892	2.06683
H	-0.959318	-1.75147	1.18545
H	-1.38141	-1.14979	-1.47069
H	0.181675	1.07464	-1.94486
C	4.72933	-0.631849	0.978127
C	3.86277	-0.505065	-0.0868322
N	4.38088	0.301056	-1.04508
C	5.56436	0.672954	-0.576378
N	5.82074	0.136875	0.640372
H	4.64925	-1.19589	1.92098
H	2.87299	-0.980809	-0.18093
H	6.28337	1.33658	-1.08318
H	6.68606	0.279633	1.21666
