18
  This energy is -1.165 and Call times are: 150397
C	0.677966	0.899827	0.130667
C	-0.669241	0.964725	0.333629
C	-1.16736	-0.348664	0.0747798
C	-0.0805734	-1.10021	-0.263511
O	1.0548	-0.353816	-0.234557
H	1.46731	1.66502	0.212281
H	-1.25361	1.84879	0.635355
H	-2.21473	-0.685385	0.135906
H	0.0156914	-2.16247	-0.542061
C	4.69059	-0.745182	0.677064
C	6.03517	-0.454069	0.769306
N	6.4051	0.449433	-0.170559
C	5.29424	0.717808	-0.843309
N	4.23284	0.0225161	-0.370453
H	4.04851	-1.42176	1.26317
H	6.74497	-0.879772	1.49718
H	5.20191	1.41563	-1.6911
H	3.24871	0.0609315	-0.732774
