18
  This energy is -1.9619 and Call times are: 178600
C	0.173553	-0.759943	-0.823873
C	0.576651	0.538656	-0.931242
C	0.185844	1.17146	0.288163
C	-0.42157	0.203693	1.03305
O	-0.437916	-0.982151	0.369333
H	0.2616	-1.61249	-1.51717
H	1.097	1.00424	-1.78363
H	0.342938	2.22523	0.569204
H	-0.877293	0.231624	2.03644
C	4.72357	0.0444329	-1.15461
C	5.42446	-0.665396	-0.202748
N	4.89056	-0.488371	1.03018
C	3.86237	0.328174	0.843905
N	3.71993	0.678029	-0.456443
H	4.86332	0.140333	-2.2431
H	6.30581	-1.30209	-0.383523
H	3.1807	0.701489	1.62506
H	2.98498	1.31128	-0.856556
