18
  This energy is -1.3986 and Call times are: 49540
C	0.866178	0.554681	0.477982
C	0.880938	-0.795443	0.284793
C	-0.366542	-1.11572	-0.332731
C	-1.0335	0.0669638	-0.462389
O	-0.295428	1.09762	0.0275315
H	1.61003	1.23828	0.919151
H	1.68921	-1.49559	0.55049
H	-0.717795	-2.11355	-0.641017
H	-2.02539	0.304931	-0.880442
C	4.46173	0.317783	1.045
C	5.03924	1.14379	0.104078
N	5.43515	0.441673	-0.985323
C	5.10451	-0.815133	-0.72124
N	4.51463	-0.941783	0.49103
H	4.03121	0.530077	2.03653
H	5.17733	2.23379	0.191754
H	5.27147	-1.68205	-1.38065
H	4.16433	-1.83021	0.926051
