18
  This energy is -1.7845 and Call times are: 156939
C	-1.02516	0.473272	-0.107048
C	-0.196589	0.276604	-1.17249
C	0.982047	-0.33294	-0.643913
C	0.769675	-0.454947	0.697871
O	-0.451104	0.0323542	1.0432
H	-2.03451	0.910914	-0.0368434
H	-0.395435	0.534863	-2.22504
H	1.87873	-0.641247	-1.20515
H	1.40028	-0.865424	1.50354
C	5.14693	-0.0756522	1.17327
C	6.24304	-0.329957	0.376389
N	5.94881	-0.143581	-0.933268
C	4.67501	0.224944	-0.948807
N	4.14657	0.280775	0.296673
H	5.01247	-0.121565	2.26567
H	7.24091	-0.644576	0.722974
H	4.08034	0.465875	-1.84466
H	3.16232	0.545199	0.546889
