18
  This energy is -1.1364 and Call times are: 115879
C	-0.0521546	1.08355	-0.331068
C	-0.205469	0.709633	0.971643
C	-0.0767003	-0.712784	0.987899
C	0.143936	-1.08252	-0.306314
O	0.162056	0.00180953	-1.1254
H	-0.073708	2.07388	-0.814824
H	-0.390662	1.3693	1.83457
H	-0.142204	-1.37525	1.86593
H	0.301552	-2.07134	-0.767452
C	4.79367	0.289785	1.1241
C	3.64029	0.507014	0.400463
N	3.76482	0.0454803	-0.867602
C	4.99081	-0.456163	-0.930396
N	5.65149	-0.332941	0.24515
H	5.05598	0.526379	2.16754
H	2.7205	0.988495	0.770622
H	5.45521	-0.925526	-1.81259
H	6.63063	-0.651153	0.448311
