18
  This energy is -1.0151 and Call times are: 111981
C	-0.541581	-0.19944	-0.976378
C	0.539767	0.628036	-0.896722
C	0.935864	0.622797	0.475574
C	0.0616008	-0.207419	1.11337
O	-0.847484	-0.718378	0.241874
H	-1.17292	-0.497372	-1.82955
H	1.0112	1.18613	-1.72158
H	1.77546	1.17602	0.926258
H	-0.0186097	-0.512641	2.16961
C	6.05823	0.445984	0.670552
C	4.78306	0.110266	1.07354
N	4.0559	-0.376624	0.0388022
C	4.87682	-0.343087	-1.00215
N	6.09618	0.144959	-0.672627
H	6.91284	0.863864	1.22602
H	4.3747	0.210643	2.09237
H	4.63632	-0.663963	-2.02851
H	6.91456	0.270182	-1.31748
