18
  This energy is -0.6326 and Call times are: 103263
C	1.11407	-0.183742	-0.107205
C	0.207559	-1.20155	-0.05548
C	-1.07115	-0.579749	0.080068
C	-0.833166	0.763147	0.0992078
O	0.495979	1.02304	-0.0141216
H	2.21188	-0.186859	-0.207434
H	0.418204	-2.28184	-0.107552
H	-2.04906	-1.08207	0.153987
H	-1.51455	1.62521	0.187581
C	6.34666	-1.02736	0.175482
C	6.66243	0.186449	0.748288
N	5.82313	1.16117	0.321668
C	4.98985	0.554362	-0.512629
N	5.26417	-0.766047	-0.63453
H	6.80052	-2.02531	0.28335
H	7.48082	0.376348	1.46175
H	4.16076	1.02961	-1.06126
H	4.75017	-1.45875	-1.23221
