18
  This energy is -0.9997 and Call times are: 162715
C	0.192241	0.88543	0.682244
C	0.23555	0.987848	-0.677171
C	-0.0554101	-0.318101	-1.17713
C	-0.250835	-1.10328	-0.0790951
O	-0.103458	-0.384649	1.06496
H	0.351231	1.6325	1.47714
H	0.450797	1.8923	-1.26855
H	-0.110609	-0.627516	-2.23321
H	-0.496688	-2.17331	0.0201574
C	4.03576	0.0940691	0.144217
C	5.01565	0.649381	0.939575
N	6.25216	0.337909	0.480727
C	6.04018	-0.407796	-0.595196
N	4.72004	-0.583704	-0.839944
H	2.93659	0.131975	0.206823
H	4.85258	1.2692	1.83628
H	6.8158	-0.850646	-1.24058
H	4.29816	-1.13194	-1.62906
