18
  This energy is -1.2409 and Call times are: 193303
C	0.816814	0.784887	-0.056291
C	0.131954	0.363108	-1.15786
C	-0.798454	-0.614118	-0.689361
C	-0.60002	-0.703241	0.657136
O	0.382784	0.14416	1.06089
H	1.62479	1.52526	0.0631418
H	0.268281	0.705765	-2.19617
H	-1.52693	-1.17979	-1.29221
H	-1.08661	-1.32258	1.42843
C	4.67315	0.995919	-0.0170809
C	6.03908	0.880344	0.131288
N	6.42531	-0.41836	0.10475
C	5.30325	-1.10585	-0.0594567
N	4.2191	-0.29841	-0.138499
H	4.01406	1.8782	-0.0439571
H	6.75282	1.71078	0.257007
H	5.21854	-2.20235	-0.128365
H	3.22253	-0.60076	-0.267666
