18
  This energy is -0.9782 and Call times are: 94504
C	-0.602826	0.679195	-0.679482
C	-1.16563	0.00207145	0.362216
C	-0.102933	-0.733686	0.970051
C	1.01545	-0.441222	0.246134
O	0.728558	0.420181	-0.765147
H	-1.03629	1.36745	-1.42356
H	-2.22304	0.0190089	0.671555
H	-0.172579	-1.40063	1.84437
H	2.06062	-0.776696	0.347795
C	4.89159	1.0679	0.386736
C	5.56093	0.772491	-0.781966
N	5.75185	-0.562899	-0.911551
C	5.20305	-1.09391	0.172637
N	4.67085	-0.151741	0.986683
H	4.56754	2.02771	0.81951
H	5.90951	1.49899	-1.53399
H	5.16299	-2.16691	0.420231
H	4.18301	-0.318559	1.90071
