18
  This energy is -1.212 and Call times are: 14560
C	-1.1304	0.0710199	-0.0595579
C	-0.342725	0.010848	-1.17146
C	1.00124	-0.0698283	-0.694639
C	0.916206	-0.0518351	0.666544
O	-0.3782	0.0338733	1.07173
H	-2.22417	0.141367	0.0586361
H	-0.674799	0.0221422	-2.22203
H	1.91838	-0.133522	-1.30201
H	1.69244	-0.0937414	1.44818
C	5.57345	-1.05821	-0.354713
C	5.99362	0.16798	-0.824886
N	5.35208	1.18	-0.191831
C	4.53702	0.583903	0.667804
N	4.63337	-0.765439	0.607948
H	5.8671	-2.0842	-0.627928
H	6.74817	0.340571	-1.60955
H	3.84812	1.08784	1.36473
H	4.09459	-1.45686	1.18494
