18
  This energy is -1.0696 and Call times are: 15165
C	-0.277563	0.565215	0.943341
C	-0.64299	-0.732259	0.735016
C	-0.116272	-1.08617	-0.544604
C	0.524528	0.0262683	-1.00528
O	0.436059	1.04436	-0.109357
H	-0.460943	1.24986	1.78767
H	-1.22507	-1.37557	1.4143
H	-0.208767	-2.05845	-1.05472
H	1.07403	0.218475	-1.94142
C	5.56705	0.650553	-0.163386
C	4.34579	1.08662	0.305161
N	3.45454	0.0677048	0.36831
C	4.12035	-0.996419	-0.0594341
N	5.39829	-0.69681	-0.392126
H	6.51273	1.18583	-0.344201
H	4.09179	2.11818	0.598779
H	3.72016	-2.01919	-0.148936
H	6.12256	-1.36382	-0.75515
