18
  This energy is -1.4749 and Call times are: 76246
C	0.238212	-1.06878	-0.295569
C	0.970932	-0.00752656	-0.739678
C	0.37136	1.15176	-0.159438
C	-0.67482	0.696595	0.588025
O	-0.770904	-0.657158	0.51638
H	0.331707	-2.15118	-0.482465
H	1.84586	-0.038002	-1.40875
H	0.688993	2.19884	-0.289187
H	-1.41557	1.22724	1.20848
C	5.12795	-0.4196	-1.09209
C	5.94469	0.489776	-0.454041
N	5.50056	0.749958	0.799578
C	4.41242	0.00482612	0.938712
N	4.1458	-0.718674	-0.174414
H	5.17458	-0.860377	-2.10059
H	6.84648	0.962808	-0.875789
H	3.77327	-0.0489132	1.83472
H	3.34372	-1.38122	-0.312148
