18
  This energy is -1.8679 and Call times are: 201775
C	-0.728626	0.848148	-0.190132
C	-0.730782	0.129391	0.969073
C	0.314982	-0.834026	0.833712
C	0.863873	-0.618951	-0.396261
O	0.238802	0.404686	-1.03537
H	-1.35592	1.68829	-0.530614
H	-1.40151	0.264117	1.83283
H	0.616287	-1.59479	1.57165
H	1.69166	-1.11931	-0.925085
C	4.20012	-0.399491	1.08883
C	5.15898	-0.848607	0.205643
N	5.10764	-0.162449	-0.961859
C	4.12068	0.709028	-0.803562
N	3.54192	0.605805	0.416263
H	3.94798	-0.713647	2.11414
H	5.88692	-1.65545	0.389932
H	3.7801	1.44575	-1.54887
H	2.74385	1.18183	0.780319
