18
  This energy is -0.5363 and Call times are: 114509
C	0.880646	0.645174	0.307593
C	-0.27211	0.588076	1.03441
C	-1.12936	-0.317142	0.337411
C	-0.424788	-0.7333	-0.753808
O	0.804894	-0.155603	-0.787865
H	1.81494	1.20961	0.461751
H	-0.496276	1.12913	1.96774
H	-2.15034	-0.617481	0.622882
H	-0.683284	-1.42838	-1.56946
C	5.5537	0.380442	1.10406
C	4.93431	0.866849	-0.0277054
N	5.33727	0.193834	-1.13278
C	6.20337	-0.706669	-0.688253
N	6.36817	-0.634513	0.653844
H	5.47516	0.674908	2.16267
H	4.20387	1.69135	-0.066697
H	6.74575	-1.44344	-1.30244
H	6.99665	-1.23695	1.2398
