18
  This energy is -0.8464 and Call times are: 188622
C	1.11153	-0.121625	-0.190008
C	0.345092	0.768458	-0.88333
C	-0.97929	0.629576	-0.366762
C	-0.905247	-0.333115	0.596626
O	0.364232	-0.802918	0.717953
H	2.18581	-0.362071	-0.247987
H	0.678867	1.45405	-1.67873
H	-1.87652	1.18607	-0.682014
H	-1.67371	-0.766802	1.2574
C	5.28748	-0.979571	0.642553
C	4.94793	-0.81641	-0.683806
N	5.21223	0.444475	-1.10431
C	5.71384	1.06119	-0.0428609
N	5.77965	0.244965	1.03558
H	5.21609	-1.85134	1.31222
H	4.51698	-1.5859	-1.34488
H	6.049	2.11004	-0.000240466
H	6.13743	0.496937	1.9894
