18
  This energy is -1.1475 and Call times are: 205478
C	0.668659	0.363235	-0.841045
C	-0.00748627	-0.819635	-0.904451
C	-0.728476	-0.924211	0.324107
C	-0.429272	0.203986	1.02981
O	0.422678	1.00152	0.333303
H	1.34769	0.856431	-1.55583
H	0.000657792	-1.5457	-1.73322
H	-1.39049	-1.74747	0.637271
H	-0.753423	0.551675	2.02444
C	5.27108	0.978022	0.320052
C	4.67047	0.730991	-0.896248
N	4.10394	-0.499849	-0.920424
C	4.35214	-1.01444	0.276327
N	5.05312	-0.162041	1.06095
H	5.81987	1.85517	0.698191
H	4.63576	1.41883	-1.75679
H	4.04356	-2.01122	0.630496
H	5.37016	-0.336401	2.04601
