18
  This energy is -0.9965 and Call times are: 59422
C	-0.874384	0.037187	-0.721437
C	-0.94075	-0.616905	0.473608
C	0.336665	-0.439993	1.08764
C	1.07087	0.306591	0.21361
O	0.346938	0.606998	-0.896653
H	-1.61744	0.168928	-1.52503
H	-1.80278	-1.16863	0.881787
H	0.661988	-0.827277	2.06655
H	2.10522	0.684488	0.264372
C	4.42372	-0.865963	-0.421718
C	4.71115	-0.610663	0.902423
N	5.52336	0.466956	1.02715
C	5.73899	0.878616	-0.214891
N	5.09764	0.107593	-1.12472
H	3.80784	-1.64554	-0.897629
H	4.34702	-1.18472	1.77002
H	6.35837	1.73927	-0.514676
H	5.11118	0.228409	-2.16706
