18
  This energy is -0.7675 and Call times are: 22919
C	0.0641449	1.03579	0.457623
C	-1.02245	0.617021	-0.25253
C	-0.731955	-0.721116	-0.658879
C	0.506511	-1.00193	-0.161168
O	1.00759	0.0597839	0.523441
H	0.285036	1.99183	0.960061
H	-1.93681	1.19267	-0.468555
H	-1.3763	-1.38925	-1.2526
H	1.1316	-1.90778	-0.224123
C	5.8216	0.818329	0.782305
C	4.54572	0.348244	0.553669
N	4.53933	-0.593798	-0.420512
C	5.80643	-0.707696	-0.794807
N	6.61877	0.122825	-0.0991613
H	6.20588	1.57338	1.48641
H	3.62967	0.671937	1.07418
H	6.19449	-1.3839	-1.57352
H	7.65789	0.218672	-0.210141
