18
  This energy is -0.879 and Call times are: 41507
C	-0.125158	-1.12374	0.0890887
C	-0.628775	-0.41368	-0.960937
C	-0.271994	0.94806	-0.71909
C	0.418151	0.949925	0.457375
O	0.51733	-0.306905	0.964872
H	-0.156195	-2.19995	0.325891
H	-1.19473	-0.809158	-1.81965
H	-0.506328	1.81831	-1.353
H	0.88354	1.76845	1.03068
C	5.4083	-0.365225	-0.866033
C	4.04684	-0.562008	-0.772015
N	3.54976	-0.00599768	0.359476
C	4.59885	0.533667	0.965101
N	5.74284	0.344076	0.265853
H	6.13842	-0.669588	-1.63273
H	3.41432	-1.09522	-1.50034
H	4.58555	1.07908	1.92248
H	6.70191	0.67446	0.534722
