18
  This energy is -1.0958 and Call times are: 7289
C	0.17191	0.916867	-0.645137
C	0.602348	-0.324668	-1.01077
C	0.204274	-1.20262	0.0432019
C	-0.434281	-0.420085	0.959859
O	-0.46326	0.877151	0.555693
H	0.254374	1.89589	-1.14511
H	1.14568	-0.595105	-1.93042
H	0.377595	-2.28911	0.103212
H	-0.905699	-0.662646	1.92639
C	5.33941	-0.826641	0.640935
C	5.37878	0.536257	0.846121
N	4.64138	1.19176	-0.0828928
C	4.14642	0.239139	-0.861453
N	4.53833	-0.995312	-0.466322
H	5.80909	-1.66061	1.18631
H	5.92605	1.05834	1.64785
H	3.49144	0.390104	-1.73463
H	4.28099	-1.90717	-0.917486
