18
  This energy is -0.3998 and Call times are: 155760
C	-0.59832	0.957828	0.104781
C	-1.1681	-0.221304	-0.276488
C	-0.109416	-1.17997	-0.292557
C	1.01386	-0.502035	0.0803122
O	0.733705	0.804779	0.326814
H	-1.02684	1.96262	0.253157
H	-2.22763	-0.398251	-0.521806
H	-0.184903	-2.24799	-0.55281
H	2.0584	-0.83113	0.20633
C	6.47206	0.0170249	-1.15449
C	5.55577	-0.10874	-0.131876
N	6.16736	-0.0896644	1.0773
C	7.45815	0.047413	0.805858
N	7.69321	0.116346	-0.525904
H	6.34576	0.0420386	-2.24855
H	4.46433	-0.2129	-0.244891
H	8.274	0.102843	1.54447
H	8.62765	0.224791	-0.990999
