18
  This energy is -1.0524 and Call times are: 137074
C	0.279643	-0.456177	1.00005
C	-0.854637	0.280805	0.825004
C	-0.856427	0.675636	-0.547666
C	0.276917	0.145075	-1.09026
O	0.982697	-0.549303	-0.159281
H	0.693426	-0.96146	1.88815
H	-1.61391	0.522186	1.58615
H	-1.61736	1.28401	-1.06241
H	0.68821	0.18916	-2.1121
C	4.19002	-0.429003	-0.738227
C	4.97578	-1.14853	0.136983
N	5.80136	-0.332581	0.836385
C	5.52879	0.8885	0.396736
N	4.56402	0.883306	-0.553408
H	3.41696	-0.747334	-1.45557
H	4.9618	-2.2418	0.276315
H	6.00607	1.8218	0.73643
H	4.17502	1.71962	-1.05393
