18
  This energy is -1.1535 and Call times are: 67502
C	-0.430106	1.0144	-0.26909
C	-1.14894	-0.13864	-0.38807
C	-0.279041	-1.18762	0.0397449
C	0.894587	-0.583002	0.38239
O	0.820119	0.761698	0.20005
H	-0.69101	2.06394	-0.48274
H	-2.18757	-0.24029	-0.741632
H	-0.509105	-2.26429	0.0838339
H	1.84407	-0.993016	0.764003
C	4.38126	0.318386	1.08726
C	5.132	-0.782901	0.734115
N	5.30965	-0.84319	-0.608017
C	4.67155	0.216665	-1.08568
N	4.09526	0.948806	-0.103103
H	4.04163	0.685837	2.06867
H	5.54865	-1.53505	1.4237
H	4.5948	0.50387	-2.14674
H	3.53696	1.82899	-0.224872
