18
  This energy is -1.6485 and Call times are: 32181
C	0.40742	-0.89886	0.558982
C	0.856447	0.368587	0.787737
C	0.114058	1.21159	-0.0944871
C	-0.723097	0.384874	-0.784476
O	-0.55738	-0.907527	-0.398147
H	0.689912	-1.86632	1.0056
H	1.6326	0.67876	1.50571
H	0.20016	2.30533	-0.196538
H	-1.47357	0.59037	-1.56538
C	3.97887	-0.931778	0.643238
C	3.97384	-0.834325	-0.732124
N	4.40671	0.384298	-1.13721
C	4.67924	1.04035	-0.017412
N	4.43771	0.289667	1.08337
H	3.69777	-1.75638	1.31744
H	3.66564	-1.62148	-1.4394
H	5.05814	2.07263	0.053769
H	4.57402	0.582345	2.08188
