18
  This energy is -1.7008 and Call times are: 112948
C	-0.143549	1.05772	-0.383426
C	0.873783	0.718008	0.459191
C	0.721552	-0.679411	0.712497
C	-0.375367	-1.07028	0.00231032
O	-0.916232	-0.0221671	-0.672923
H	-0.422279	2.0206	-0.842145
H	1.65322	1.3846	0.861963
H	1.35949	-1.31171	1.35071
H	-0.865911	-2.05177	-0.103959
C	4.27828	-1.07395	-0.465744
C	4.41076	-0.761726	0.870711
N	4.53002	0.576177	1.05045
C	4.47175	1.09199	-0.169866
N	4.32036	0.137748	-1.1186
H	4.16096	-2.04041	-0.981235
H	4.42243	-1.47786	1.70848
H	4.53484	2.162	-0.425496
H	4.24868	0.291617	-2.15418
