18
  This energy is -0.9369 and Call times are: 2132
C	0.0235937	-0.130406	-1.12643
C	-1.01078	0.48393	-0.483753
C	-0.680511	0.454708	0.905557
C	0.526535	-0.174905	0.989227
O	0.971344	-0.539078	-0.24225
H	0.201595	-0.336383	-2.19467
H	-1.9156	0.914478	-0.942054
H	-1.27834	0.858094	1.73861
H	1.16408	-0.421541	1.85407
C	4.46067	0.191723	0.224173
C	4.98565	-0.677118	-0.708916
N	6.3404	-0.644841	-0.698788
C	6.65468	0.240656	0.237027
N	5.55605	0.77313	0.822746
H	3.41982	0.429494	0.495543
H	4.41116	-1.32669	-1.38926
H	7.67374	0.536842	0.533728
H	5.54146	1.49192	1.5872
