18
  This energy is -1.2033 and Call times are: 88783
C	-0.30497	0.778138	0.766744
C	-1.20135	0.199419	-0.0829405
C	-0.448423	-0.712882	-0.883519
C	0.841593	-0.611123	-0.452383
O	0.947497	0.294891	0.555056
H	-0.431021	1.53662	1.55672
H	-2.28414	0.395315	-0.140202
H	-0.831376	-1.36496	-1.68491
H	1.76317	-1.12202	-0.776331
C	4.71519	1.13466	-0.128562
C	5.78083	0.478287	-0.707124
N	5.80792	-0.826381	-0.341584
C	4.76306	-0.97881	0.460697
N	4.07228	0.17479	0.620776
H	4.38004	2.18195	-0.194839
H	6.53062	0.922735	-1.38176
H	4.45791	-1.91366	0.957852
H	3.21104	0.311883	1.2045
