18
  This energy is -0.9964 and Call times are: 131632
C	0.374406	-0.59444	-0.890428
C	1.05064	-0.547804	0.293169
C	0.275623	0.288334	1.1536
C	-0.805801	0.678838	0.419838
O	-0.761701	0.149019	-0.830905
H	0.593824	-1.11358	-1.83784
H	1.99999	-1.05166	0.53598
H	0.504599	0.561662	2.19617
H	-1.66475	1.3231	0.669621
C	5.91931	0.978061	0.616757
C	6.76345	0.358912	-0.280587
N	6.1875	-0.747902	-0.809509
C	4.99061	-0.815133	-0.242449
N	4.78115	0.203023	0.625349
H	6.04384	1.88509	1.2294
H	7.77775	0.690997	-0.555844
H	4.2281	-1.58899	-0.426697
H	3.91646	0.370174	1.196
