18
  This energy is -1.1682 and Call times are: 131279
C	-0.716181	-0.664214	0.576459
C	0.452112	-1.13264	0.0510617
C	1.06802	-0.0151245	-0.59076
C	0.221727	1.03755	-0.400911
O	-0.873041	0.659184	0.309959
H	-1.51117	-1.16494	1.1531
H	0.841154	-2.16187	0.109597
H	2.02954	-0.00563162	-1.12879
H	0.283708	2.09173	-0.717305
C	4.43742	0.348454	0.825917
C	5.4625	-0.561217	0.97704
N	6.14463	-0.725772	-0.182326
C	5.545	0.0787543	-1.04939
N	4.50962	0.748382	-0.48977
H	3.6867	0.726889	1.53778
H	5.72212	-1.10175	1.90185
H	5.8234	0.215949	-2.1067
H	3.88154	1.44037	-0.967176
