18
  This energy is -0.8649 and Call times are: 14781
C	-0.694553	0.484594	-0.754431
C	-0.296462	1.11968	0.385114
C	0.559543	0.201113	1.066
C	0.60898	-0.914209	0.282427
O	-0.151092	-0.758558	-0.833402
H	-1.35351	0.805198	-1.57799
H	-0.577421	2.13331	0.713298
H	1.07424	0.360944	2.02706
H	1.14107	-1.8717	0.406254
C	6.29047	-0.17518	-0.749307
C	6.29727	-0.400018	0.611041
N	5.09935	-0.0898302	1.16355
C	4.35223	0.325859	0.149827
N	5.02513	0.293019	-1.02479
H	7.07051	-0.310701	-1.51528
H	7.14508	-0.780496	1.20375
H	3.30583	0.665632	0.211798
H	4.65371	0.571214	-1.96602
