18
  This energy is -1.2789 and Call times are: 200590
C	-0.887579	0.356049	-0.609781
C	-0.848497	0.455483	0.749984
C	0.410724	-0.0901695	1.14589
C	1.02997	-0.474875	-0.00689126
O	0.251422	-0.209807	-1.08884
H	-1.65807	0.647582	-1.34231
H	-1.62819	0.871354	1.40819
H	0.801471	-0.181478	2.17208
H	2.01156	-0.942563	-0.188556
C	4.55176	0.456646	-1.05591
C	4.1679	0.953669	0.171594
N	4.62921	0.174793	1.18008
C	5.29672	-0.80171	0.580502
N	5.27924	-0.676438	-0.767679
H	4.36495	0.81706	-2.07999
H	3.56635	1.86031	0.347614
H	5.8173	-1.63404	1.08096
H	5.73335	-1.31987	-1.46125
