18
  This energy is -1.7329 and Call times are: 6977
C	0.163025	-1.09793	-0.233165
C	-0.567387	-0.279664	-1.04391
C	-0.544088	1.00697	-0.424111
C	0.198505	0.861362	0.710669
O	0.638342	-0.417705	0.843113
H	0.414793	-2.1684	-0.310419
H	-1.07196	-0.554534	-1.98409
H	-1.02701	1.92801	-0.788195
H	0.482692	1.58112	1.4958
C	3.92317	-0.625969	0.957402
C	4.81155	0.426008	0.884875
N	4.88704	0.915738	-0.376465
C	4.04867	0.170409	-1.08375
N	3.44289	-0.773248	-0.324717
H	3.60922	-1.25909	1.80247
H	5.3994	0.840409	1.72007
H	3.8404	0.272785	-2.16095
H	2.74106	-1.48204	-0.65078
