18
  This energy is -1.1142 and Call times are: 37902
C	0.466087	0.35949	0.969501
C	-0.881184	0.210133	0.818075
C	-1.0754	-0.252877	-0.519093
C	0.170333	-0.345586	-1.06675
O	1.1237	0.024548	-0.171711
H	1.07294	0.691912	1.82769
H	-1.66009	0.406329	1.57234
H	-2.03483	-0.487045	-1.00772
H	0.506951	-0.657397	-2.0691
C	4.99432	-0.911981	0.737894
C	5.77222	-0.662357	-0.372831
N	5.38619	0.478944	-0.993255
C	4.37267	0.935615	-0.270174
N	4.09782	0.13219	0.784604
H	5.01459	-1.73144	1.47384
H	6.60509	-1.28532	-0.737655
H	3.79615	1.85354	-0.468359
H	3.34519	0.277087	1.50141
