18
  This energy is -1.2206 and Call times are: 26037
C	0.211486	-1.0021	0.487304
C	0.881055	-0.572934	-0.620787
C	0.342044	0.713224	-0.929627
C	-0.609325	0.95647	0.0170002
O	-0.70245	-0.0805713	0.890433
H	0.291587	-1.93071	1.07597
H	1.67489	-1.10835	-1.16599
H	0.634873	1.37328	-1.76189
H	-1.27921	1.81743	0.175946
C	5.45172	0.704912	-0.680775
C	4.20249	0.97694	-0.164471
N	3.74396	-0.060265	0.577462
C	4.70507	-0.972278	0.521646
N	5.75612	-0.558353	-0.225046
H	6.12324	1.301	-1.31896
H	3.62382	1.90302	-0.314015
H	4.69075	-1.96039	1.00915
H	6.63539	-1.0971	-0.419722
