18
  This energy is -0.6511 and Call times are: 118930
C	0.892515	-0.694413	-0.0872233
C	0.480668	-0.180783	1.10732
C	-0.654416	0.634351	0.811928
C	-0.836	0.546881	-0.537053
O	0.0997865	-0.260493	-1.10226
H	1.72408	-1.37086	-0.344449
H	0.931011	-0.358127	2.09719
H	-1.25912	1.21467	1.52723
H	-1.58379	1.00461	-1.20529
C	6.21846	0.70288	0.788826
C	6.48059	0.641612	-0.563461
N	5.69704	-0.28173	-1.17173
C	4.95164	-0.791341	-0.200483
N	5.22845	-0.230522	1.00054
H	6.65191	1.32393	1.5888
H	7.22106	1.24711	-1.11113
H	4.1877	-1.57737	-0.313544
H	4.77525	-0.46254	1.91816
