18
  This energy is -0.8452 and Call times are: 32693
C	0.735316	0.829502	-0.24008
C	0.478742	0.428124	1.03798
C	-0.485542	-0.62027	0.932418
C	-0.733104	-0.767002	-0.400833
O	0.00390566	0.110353	-1.13164
H	1.40781	1.6052	-0.641704
H	0.923868	0.830007	1.96234
H	-0.936711	-1.19286	1.75866
H	-1.40232	-1.45004	-0.949338
C	6.27743	-0.0845259	0.879519
C	6.53213	0.318851	-0.414141
N	5.40334	0.297844	-1.16373
C	4.45197	-0.116989	-0.338234
N	4.92866	-0.360796	0.905519
H	6.93848	-0.190984	1.75429
H	7.51017	0.624667	-0.820065
H	3.38935	-0.25975	-0.592582
H	4.37607	-0.696349	1.73214
