18
  This energy is -1.4975 and Call times are: 11774
C	-0.0544366	1.00903	-0.515075
C	-0.525901	0.807769	0.748883
C	-0.281868	-0.568547	1.04269
C	0.31718	-1.08684	-0.0676697
O	0.463918	-0.13739	-1.02893
H	-0.0294575	1.90885	-1.15142
H	-0.998148	1.55368	1.4082
H	-0.527287	-1.10192	1.97509
H	0.681708	-2.10202	-0.29522
C	3.92761	-0.65961	-0.900741
C	3.69245	-0.880908	0.439734
N	4.27088	0.0785539	1.20221
C	4.86263	0.891983	0.338037
N	4.68469	0.489851	-0.942673
H	3.62005	-1.22006	-1.79787
H	3.11578	-1.71569	0.870369
H	5.43942	1.79667	0.589174
H	5.05323	0.963462	-1.80356
