18
  This energy is -1.7871 and Call times are: 49328
C	0.168961	-0.543032	-0.98131
C	0.554016	-1.0655	0.21833
C	0.176146	-0.10276	1.20345
C	-0.406462	0.923033	0.518845
O	-0.419347	0.670954	-0.816558
H	0.255803	-0.931142	-2.00945
H	1.05399	-2.0319	0.392092
H	0.324892	-0.174303	2.29288
H	-0.845388	1.87448	0.861402
C	4.06545	0.65859	-0.641711
C	5.23248	1.07248	-0.0351743
N	5.82964	0.0501671	0.62422
C	5.03609	-0.99396	0.427502
N	3.95877	-0.678374	-0.329724
H	3.32792	1.2027	-1.25289
H	5.6543	2.09043	-0.0615384
H	5.19662	-2.01285	0.815208
H	3.18892	-1.32832	-0.623236
