18
  This energy is -1.9644 and Call times are: 177162
C	-0.804052	-0.68778	0.408485
C	-0.166378	-0.930208	-0.772606
C	0.762337	0.141553	-0.942705
C	0.610204	0.944306	0.149456
O	-0.342271	0.45294	0.985137
H	-1.59385	-1.24326	0.940386
H	-0.333256	-1.77865	-1.45554
H	1.45869	0.289308	-1.78375
H	1.11263	1.88008	0.44468
C	4.30368	-0.870669	0.767128
C	5.20414	-0.875164	-0.277037
N	5.1675	0.295401	-0.958908
C	4.24779	1.02331	-0.34011
N	3.69774	0.364419	0.707216
H	4.05934	-1.63353	1.52336
H	5.87961	-1.70206	-0.550603
H	3.93804	2.04515	-0.612396
H	2.95181	0.725603	1.35095
