18
  This energy is -1.132 and Call times are: 96164
C	0.486438	-0.196439	-1.00558
C	-0.630884	-0.860739	-0.592455
C	-0.935232	-0.345164	0.704338
C	0.0229737	0.588683	0.969187
O	0.899451	0.692574	-0.0642567
H	1.07576	-0.264381	-1.93474
H	-1.18515	-1.63605	-1.14543
H	-1.77239	-0.641247	1.35672
H	0.18883	1.23811	1.84439
C	6.67442	1.08571	-0.448104
C	7.65359	0.115077	-0.463883
N	7.22717	-1.01908	0.143057
C	5.98817	-0.753055	0.533878
N	5.60858	0.503344	0.200765
H	6.66109	2.1153	-0.83964
H	8.6601	0.212809	-0.902334
H	5.31435	-1.44231	1.06785
H	4.67939	0.948936	0.399013
