18
  This energy is -1.5722 and Call times are: 41635
C	-0.34276	-0.190176	1.06431
C	0.0902285	-1.19208	0.246337
C	0.429403	-0.56665	-0.992174
C	0.173739	0.76224	-0.821708
O	-0.298434	1.01008	0.428348
H	-0.704007	-0.201259	2.10576
H	0.163432	-2.26403	0.490611
H	0.817867	-1.05726	-1.89909
H	0.284419	1.62139	-1.50352
C	5.02825	-0.545893	-0.633317
C	4.7545	0.805394	-0.618348
N	3.73367	1.0878	0.227029
C	3.37549	-0.0838328	0.734578
N	4.12611	-1.10001	0.247182
H	5.77625	-1.13283	-1.18968
H	5.27528	1.58162	-1.20239
H	2.57003	-0.254533	1.46692
H	4.03769	-2.11634	0.493165
