18
  This energy is -0.7647 and Call times are: 200878
C	0.336355	0.664079	0.855725
C	1.19207	0.23534	-0.116027
C	0.408448	-0.566172	-1.00125
C	-0.856958	-0.55647	-0.492306
O	-0.919211	0.190003	0.641676
H	0.495638	1.30146	1.74095
H	2.26726	0.460876	-0.200946
H	0.755256	-1.08564	-1.90898
H	-1.78801	-1.03432	-0.838781
C	5.40686	-0.848065	0.191873
C	6.76824	-0.926764	0.395843
N	7.37926	0.238192	0.0701994
C	6.40067	1.03656	-0.334254
N	5.19233	0.427873	-0.279449
H	4.60239	-1.58515	0.343702
H	7.32053	-1.80325	0.772142
H	6.51332	2.0764	-0.681063
H	4.26813	0.847891	-0.545338
