18
  This energy is -1.4849 and Call times are: 133087
C	-0.249659	-0.794643	-0.769814
C	-0.62085	0.509296	-0.919267
C	-0.132123	1.18998	0.237421
C	0.494579	0.241917	0.991599
O	0.432447	-0.97593	0.391598
H	-0.408125	-1.6779	-1.41013
H	-1.18248	0.947813	-1.75973
H	-0.23948	2.2612	0.472093
H	1.01613	0.305774	1.9607
C	3.64101	-0.00284609	-0.682216
C	3.90713	0.850441	0.367652
N	5.10605	0.569741	0.933608
C	5.5819	-0.453791	0.237492
N	4.73544	-0.835969	-0.747921
H	2.77901	-0.0738014	-1.36447
H	3.25553	1.66359	0.726893
H	6.54496	-0.961744	0.40697
H	4.88447	-1.61794	-1.43171
