18
  This energy is -0.8891 and Call times are: 160347
C	-0.773246	-0.806869	-0.193527
C	-0.318006	-0.516837	1.05907
C	0.630746	0.538292	0.895706
C	0.671521	0.799891	-0.442306
O	-0.179613	-0.0123214	-1.12267
H	-1.5087	-1.5461	-0.55117
H	-0.620007	-0.997675	2.00337
H	1.2106	1.03819	1.68815
H	1.25617	1.52877	-1.02726
C	4.47566	0.451633	0.363106
C	4.67217	-0.770212	-0.244859
N	5.98205	-0.969216	-0.529688
C	6.59582	0.125012	-0.100058
N	5.73075	1.01199	0.446325
H	3.56197	0.945559	0.730178
H	3.89228	-1.51174	-0.483083
H	7.67708	0.328486	-0.160794
H	5.97047	1.94818	0.855402
