18
  This energy is -1.6577 and Call times are: 96132
C	0.71655	0.871159	-0.118491
C	0.585996	0.187089	1.05427
C	-0.395734	-0.82154	0.811391
C	-0.778436	-0.66479	-0.488356
O	-0.109271	0.364378	-1.07149
H	1.35367	1.72583	-0.399329
H	1.12677	0.374006	1.99593
H	-0.76747	-1.57214	1.52729
H	-1.5073	-1.21353	-1.10714
C	5.19026	-1.07186	-0.477566
C	6.1968	-0.139509	-0.340656
N	5.73999	0.988812	0.254931
C	4.45494	0.757324	0.486625
N	4.07518	-0.471513	0.0631466
H	5.18862	-2.08624	-0.90718
H	7.24444	-0.260758	-0.660954
H	3.74617	1.4533	0.963593
H	3.11436	-0.88765	0.13334
