18
  This energy is -1.1192 and Call times are: 36942
C	-0.337793	0.444479	-0.987287
C	-1.16519	0.351519	0.0930601
C	-0.38947	-0.253236	1.12875
C	0.843477	-0.476447	0.589868
O	0.892871	-0.0564454	-0.701708
H	-0.502631	0.841512	-2.0024
H	-2.21632	0.676236	0.154487
H	-0.719579	-0.490635	2.15284
H	1.75797	-0.920872	1.01582
C	4.61191	0.67993	0.916401
C	4.08266	0.737609	-0.355495
N	4.64596	-0.19458	-1.16186
C	5.52133	-0.828154	-0.393139
N	5.53835	-0.337729	0.868917
H	4.40183	1.27132	1.82175
H	3.30446	1.43515	-0.705766
H	6.17567	-1.65859	-0.703698
H	6.14223	-0.669504	1.66044
