18
  This energy is -0.8241 and Call times are: 21143
C	-0.730476	0.21788	-0.839842
C	-1.06716	-0.540536	0.242667
C	0.0990174	-0.586053	1.06613
C	1.04538	0.148566	0.41413
O	0.556021	0.647022	-0.751666
H	-1.30836	0.521167	-1.72827
H	-2.0392	-1.01984	0.441368
H	0.210919	-1.10767	2.03023
H	2.09011	0.388521	0.671459
C	6.27459	-0.792595	0.729145
C	6.93313	0.22304	0.0688813
N	6.07631	0.94862	-0.689997
C	4.89072	0.385256	-0.501239
N	4.95768	-0.668696	0.346282
H	6.63777	-1.56886	1.42128
H	8.01116	0.445267	0.126483
H	3.94061	0.704448	-0.959097
H	4.15864	-1.2758	0.653248
