18
  This energy is -0.5821 and Call times are: 107519
C	-0.447123	-0.112804	-1.03622
C	-0.895067	-0.829187	0.0345324
C	-0.0961162	-0.415228	1.14378
C	0.769526	0.517576	0.652951
O	0.569256	0.714692	-0.676729
H	-0.763979	-0.100767	-2.09202
H	-1.70669	-1.57438	0.0424509
H	-0.165116	-0.775645	2.18274
H	1.56433	1.1056	1.14056
C	4.9566	0.0749848	0.268534
C	5.55091	-0.842978	-0.571283
N	6.888	-0.637575	-0.651819
C	7.12231	0.403854	0.135043
N	5.98972	0.869593	0.712895
H	3.90663	0.214365	0.571306
H	5.03886	-1.64981	-1.12054
H	8.10458	0.866119	0.32393
H	5.91317	1.68134	1.37355
