18
  This energy is -1.0674 and Call times are: 15870
C	-0.512388	0.982581	0.241649
C	0.453776	0.878668	-0.715484
C	0.848552	-0.493985	-0.72514
C	0.0887793	-1.10771	0.226944
O	-0.747952	-0.220931	0.827378
H	-1.10103	1.84479	0.595701
H	0.848835	1.68749	-1.35096
H	1.61055	-0.961033	-1.36959
H	0.0494326	-2.15541	0.567563
C	5.42395	0.979978	0.565504
C	4.43715	0.864072	-0.3905
N	4.33122	-0.413117	-0.831043
C	5.24881	-1.08698	-0.150926
N	5.93418	-0.291494	0.704092
H	5.78708	1.84831	1.13792
H	3.79972	1.67913	-0.770266
H	5.4609	-2.16462	-0.240032
H	6.70701	-0.587003	1.3496
