18
  This energy is -1.0116 and Call times are: 84119
C	0.443212	-0.620599	0.839536
C	0.788359	-0.80648	-0.46687
C	0.0312023	0.149023	-1.21108
C	-0.709792	0.83445	-0.293749
O	-0.47069	0.377591	0.963678
H	0.77237	-1.12683	1.76184
H	1.50432	-1.54261	-0.866391
H	0.0433871	0.301028	-2.30233
H	-1.43414	1.65771	-0.40694
C	4.64157	-0.637136	-0.635553
C	4.37351	0.0461618	0.531663
N	5.48126	0.673818	0.995836
C	6.43291	0.381014	0.11991
N	5.97659	-0.406925	-0.882344
H	3.99824	-1.25046	-1.28632
H	3.40065	0.0975127	1.04719
H	7.48129	0.717371	0.164454
H	6.53364	-0.772763	-1.69297
