18
  This energy is -1.0919 and Call times are: 197858
C	0.459248	-0.518284	0.898262
C	-0.775221	-0.844714	0.418781
C	-0.999337	0.0135224	-0.700737
C	0.117964	0.788646	-0.806549
O	1.01916	0.47737	0.161932
H	1.04301	-0.914959	1.74509
H	-1.45937	-1.61281	0.813821
H	-1.8918	0.0431474	-1.34628
H	0.389894	1.58612	-1.51742
C	5.62866	1.04108	-0.342774
C	6.3539	-0.0613959	0.0568805
N	5.5365	-1.09167	0.383869
C	4.30884	-0.630095	0.187815
N	4.31124	0.651149	-0.250362
H	5.94623	2.04213	-0.67531
H	7.4523	-0.131887	0.115146
H	3.37253	-1.18811	0.34957
H	3.46983	1.23605	-0.476592
