18
  This energy is -0.9634 and Call times are: 27033
C	0.0171131	1.0456	0.439116
C	-0.788005	0.706342	-0.608291
C	-0.529139	-0.673853	-0.86938
C	0.411315	-1.05617	0.0415269
O	0.756461	-0.0186592	0.848656
H	0.154584	1.99797	0.977024
H	-1.49342	1.36222	-1.14337
H	-0.993942	-1.30086	-1.64714
H	0.908973	-2.02421	0.216155
C	5.55589	0.500595	0.962633
C	4.23498	0.16738	0.749799
N	4.06329	-0.393672	-0.47178
C	5.27309	-0.408462	-1.01472
N	6.20742	0.119923	-0.189228
H	6.0615	0.966146	1.82354
H	3.40275	0.321746	1.45579
H	5.53095	-0.794762	-2.01397
H	7.23279	0.220452	-0.388663
