18
  This energy is -0.7184 and Call times are: 142202
C	-0.442506	-0.171407	-1.03015
C	0.816225	-0.579068	-0.698817
C	1.00779	-0.189733	0.662006
C	-0.150792	0.421475	1.04212
O	-1.04757	0.441537	0.0211413
H	-1.01555	-0.256909	-1.968
H	1.53747	-1.10153	-1.34761
H	1.90709	-0.350313	1.27809
H	-0.457292	0.877694	1.99772
C	5.84212	0.428179	-1.06548
C	4.99589	-0.262859	-0.224349
N	5.62432	-0.607363	0.925829
C	6.85572	-0.131854	0.798717
N	7.03685	0.500919	-0.38466
H	5.68396	0.858957	-2.06696
H	3.94316	-0.51903	-0.426788
H	7.66463	-0.218983	1.54189
H	7.91927	0.959555	-0.719695
