18
  This energy is -1.9804 and Call times are: 211638
C	0.12544	1.12396	-0.0859318
C	-0.612062	0.544922	0.904614
C	-0.532363	-0.863248	0.679177
C	0.246808	-1.02042	-0.429229
O	0.657266	0.18282	-0.909602
H	0.345915	2.18037	-0.310948
H	-1.15749	1.05796	1.71295
H	-1.00371	-1.6591	1.27797
H	0.578176	-1.92333	-0.96792
C	3.64832	1.14372	-0.116887
C	4.21155	0.318997	-1.06755
N	4.36168	-0.9417	-0.593611
C	3.89337	-0.899244	0.64635
N	3.45149	0.336208	0.981007
H	3.38252	2.21246	-0.143076
H	4.51228	0.611044	-2.08692
H	3.85048	-1.74383	1.3528
H	3.03777	0.624095	1.90145
