18
  This energy is -0.8186 and Call times are: 57527
C	-0.634302	-0.518518	0.784347
C	0.700478	-0.295684	0.954877
C	1.14035	0.369542	-0.230073
C	0.0355353	0.494494	-1.0201
O	-1.05722	-0.042418	-0.416269
H	-1.38414	-0.999124	1.43397
H	1.31379	-0.572037	1.82756
H	2.16252	0.711513	-0.458797
H	-0.102272	0.939485	-2.01923
C	6.36635	0.855781	-0.255816
C	5.2784	0.467058	-1.00842
N	4.61218	-0.5524	-0.413982
C	5.28426	-0.795199	0.703148
N	6.35049	0.0275155	0.844144
H	7.12541	1.63714	-0.41968
H	4.96224	0.903929	-1.96969
H	5.03912	-1.56399	1.45354
H	7.03472	0.0333295	1.63979
