18
  This energy is -1.0368 and Call times are: 73492
C	0.0402993	-0.927823	0.651092
C	-0.40863	-0.957999	-0.636513
C	-0.3084	0.383321	-1.11707
C	0.192929	1.11475	-0.0807031
O	0.411805	0.330049	1.00712
H	0.143446	-1.72243	1.4082
H	-0.773736	-1.83666	-1.19216
H	-0.580344	0.751406	-2.11939
H	0.435536	2.18646	0.00776385
C	6.17165	0.11002	0.0151617
C	5.43621	-0.811297	-0.699998
N	4.10824	-0.651818	-0.481893
C	4.02017	0.364569	0.365352
N	5.23706	0.858397	0.695362
H	7.25771	0.280381	0.0858308
H	5.84001	-1.58823	-1.36945
H	3.0894	0.787835	0.776124
H	5.43155	1.65886	1.34551
