18
  This energy is -0.5383 and Call times are: 725
C	1.03152	0.471177	0.0192108
C	0.0736762	0.772226	0.942405
C	-1.06857	-0.00951461	0.589879
C	-0.707906	-0.719264	-0.517618
O	0.571387	-0.43804	-0.880021
H	2.06605	0.831144	-0.104971
H	0.162573	1.47435	1.78692
H	-2.04138	-0.0340079	1.10673
H	-1.2627	-1.44701	-1.13231
C	6.84382	0.635103	-0.301567
C	5.5467	1.08675	-0.180621
N	4.71192	0.0833892	0.183971
C	5.48823	-0.986652	0.288809
N	6.78233	-0.705713	0.00603536
H	7.77523	1.15559	-0.575621
H	5.19821	2.11862	-0.3499
H	5.16069	-2.00068	0.569331
H	7.58576	-1.38069	0.0187038
