18
  This energy is -0.8013 and Call times are: 39017
C	-0.578361	-0.933231	0.284569
C	0.691413	-0.698502	0.723831
C	1.07393	0.557323	0.161073
C	0.00414556	0.979152	-0.572403
O	-1.01387	0.0810821	-0.508217
H	-1.27011	-1.77287	0.46273
H	1.29785	-1.34486	1.37847
H	2.03592	1.07825	0.292631
H	-0.155361	1.88687	-1.17726
C	6.58868	-0.692521	-0.34024
C	6.13065	0.440058	-0.979475
N	5.09013	0.992271	-0.30948
C	4.90336	0.205264	0.741405
N	5.78191	-0.824806	0.767827
H	7.40443	-1.39044	-0.587205
H	6.53233	0.868645	-1.91211
H	4.13759	0.337244	1.52269
H	5.83784	-1.58028	1.49405
