18
  This energy is -0.69 and Call times are: 210360
C	-0.758629	0.777005	0.327333
C	0.428042	1.11445	-0.254319
C	1.09836	-0.118728	-0.519038
C	0.262135	-1.10088	-0.0757828
O	-0.876642	-0.571861	0.444154
H	-1.59299	1.39486	0.697955
H	0.794583	2.12988	-0.474837
H	2.08795	-0.249515	-0.985609
H	0.360458	-2.19887	-0.0734906
C	6.82454	0.242879	0.68653
C	6.28961	1.04821	-0.296537
N	5.22657	0.453565	-0.89056
C	5.10251	-0.716228	-0.278337
N	6.04253	-0.890529	0.6806
H	7.6779	0.39117	1.36721
H	6.65164	2.04768	-0.587833
H	4.34083	-1.48308	-0.492892
H	6.15434	-1.72926	1.30131
