18
  This energy is -1.3763 and Call times are: 76022
C	0.31349	-1.08981	0.0211603
C	0.418595	-0.321179	-1.10069
C	-0.068015	0.971272	-0.736134
C	-0.427524	0.87835	0.576304
O	-0.201345	-0.373361	1.05492
H	0.5675	-2.1457	0.210399
H	0.800482	-0.633053	-2.08608
H	-0.138429	1.86072	-1.38267
H	-0.850584	1.62077	1.27278
C	5.01085	0.824586	-0.447036
C	3.78178	1.02414	0.14516
N	3.23712	-0.149591	0.547942
C	4.12494	-1.07377	0.206918
N	5.2119	-0.536729	-0.39615
H	5.73259	1.5314	-0.886415
H	3.27824	1.99399	0.289012
H	4.02932	-2.15854	0.375345
H	6.04842	-1.05804	-0.756336
