18
  This energy is -0.9104 and Call times are: 153362
C	0.72011	-0.876004	0.0214538
C	0.728597	0.0522058	-0.97791
C	-0.307182	0.981844	-0.656894
C	-0.857184	0.539657	0.5103
O	-0.242027	-0.593875	0.938901
H	1.3391	-1.77206	0.192275
H	1.39718	0.0795118	-1.85333
H	-0.601354	1.87324	-1.23393
H	-1.67938	0.937097	1.12778
C	4.98491	-0.930343	-0.589282
C	4.43409	-0.348588	0.532906
N	5.17511	0.706622	0.949964
C	6.1818	0.779214	0.0897778
N	6.11203	-0.186066	-0.8573
H	4.66524	-1.79255	-1.19587
H	3.51527	-0.671343	1.0491
H	6.99772	1.51962	0.10714
H	6.78779	-0.338465	-1.64557
