18
  This energy is -0.8417 and Call times are: 11614
C	-0.744646	-0.0669041	0.852894
C	-0.708795	-0.980952	-0.15884
C	0.346566	-0.563243	-1.02593
C	0.862468	0.569186	-0.467522
O	0.208036	0.886862	0.680438
H	-1.39153	0.0148021	1.74178
H	-1.36018	-1.86105	-0.28217
H	0.676128	-1.05509	-1.95522
H	1.68402	1.23209	-0.785109
C	6.274	0.659302	-0.0417253
C	5.08012	0.905115	-0.686222
N	4.1704	-0.0621081	-0.415295
C	4.79753	-0.904755	0.394199
N	6.06856	-0.513775	0.649558
H	7.22358	1.21752	-0.0265929
H	4.85886	1.76304	-1.34186
H	4.3728	-1.82377	0.829218
H	6.76486	-1.00976	1.25818
