18
  This energy is -0.5667 and Call times are: 41284
C	0.0269541	-0.598889	-0.962812
C	-1.08769	-0.523742	-0.180317
C	-0.733982	0.30874	0.925116
C	0.565582	0.668822	0.720551
O	1.04622	0.123481	-0.427752
H	0.220085	-1.12621	-1.91143
H	-2.06131	-1.00615	-0.363204
H	-1.37883	0.600122	1.76972
H	1.25086	1.29982	1.31003
C	5.97029	0.180224	0.87136
C	4.79192	0.86248	0.654279
N	4.15056	0.392997	-0.44333
C	4.92808	-0.576825	-0.905419
N	6.03757	-0.74387	-0.147321
H	6.74005	0.283469	1.6526
H	4.39303	1.68507	1.26998
H	4.73251	-1.19659	-1.7953
H	6.80318	-1.44395	-0.305427
