18
  This energy is -0.7737 and Call times are: 126526
C	0.712257	-0.224412	0.853657
C	-0.642869	-0.263724	1.00352
C	-1.18738	0.071969	-0.273558
C	-0.11693	0.286784	-1.09109
O	1.05115	0.110128	-0.419233
H	1.53235	-0.411721	1.56613
H	-1.20286	-0.504918	1.92131
H	-2.25349	0.142799	-0.542807
H	-0.0544724	0.566558	-2.15555
C	5.91662	-0.0666711	0.735156
C	4.92938	-1.01232	0.555602
N	4.0278	-0.607484	-0.371637
C	4.45411	0.584787	-0.765817
N	5.58956	0.955332	-0.127819
H	6.79933	-0.0492433	1.39399
H	4.85148	-1.97947	1.0785
H	3.97273	1.22946	-1.51875
H	6.11974	1.85059	-0.264511
