18
  This energy is -1.1929 and Call times are: 206602
C	0.340086	-0.91351	0.579864
C	-0.921084	-0.79755	0.0735259
C	-0.964896	0.4718	-0.579888
C	0.273369	1.01947	-0.41516
O	1.08316	0.187085	0.290813
H	0.825276	-1.71806	1.15653
H	-1.73853	-1.53218	0.152259
H	-1.82306	0.917018	-1.1085
H	0.6976	1.98109	-0.747656
C	6.02588	0.714298	0.738413
C	5.78612	-0.627615	0.531213
N	6.63695	-1.13927	-0.391181
C	7.40163	-0.118653	-0.754825
N	7.07261	1.02118	-0.102043
H	5.54184	1.44811	1.40232
H	5.01447	-1.23578	1.03075
H	8.21731	-0.150692	-1.495
H	7.5281	1.95984	-0.214696
