18
  This energy is -1.0843 and Call times are: 48304
C	0.221529	-0.26114	1.08126
C	-0.954416	0.311372	0.69428
C	-0.858192	0.484373	-0.720262
C	0.368059	0.00230708	-1.07281
O	1.04102	-0.457013	0.0149215
H	0.591607	-0.573351	2.07163
H	-1.80435	0.584463	1.34014
H	-1.61868	0.918267	-1.38921
H	0.872024	-0.0691911	-2.05065
C	4.19639	-0.808667	0.691033
C	5.08412	0.17303	1.07749
N	5.46432	0.931505	0.020768
C	4.81493	0.422283	-1.01731
N	4.0373	-0.628754	-0.664883
H	3.68371	-1.5963	1.26578
H	5.45708	0.347624	2.09988
H	4.8725	0.780622	-2.05775
H	3.42908	-1.19812	-1.30297
