18
  This energy is -0.8812 and Call times are: 57687
C	0.302116	-1.09214	0.0485311
C	-0.997405	-0.698859	-0.0816492
C	-0.973261	0.729066	-0.105428
C	0.338884	1.08232	0.0123199
O	1.13179	-0.0173483	0.107442
H	0.760447	-2.09283	0.110179
H	-1.88405	-1.34906	-0.153702
H	-1.83746	1.40611	-0.199583
H	0.830811	2.06844	0.0408814
C	4.40422	0.75573	-0.107419
C	5.26619	0.640874	0.96261
N	6.18156	-0.335562	0.750052
C	5.88857	-0.824601	-0.447289
N	4.82473	-0.199801	-1.00537
H	3.54983	1.42741	-0.287431
H	5.244	1.24506	1.88419
H	6.42062	-1.64038	-0.962707
H	4.40098	-0.404309	-1.94339
