18
  This energy is -1.0131 and Call times are: 69500
C	0.633651	0.105049	-0.934801
C	0.928831	0.759291	0.225031
C	-0.0838665	0.378329	1.15746
C	-0.908493	-0.475083	0.485116
O	-0.485279	-0.653358	-0.793994
H	1.13446	0.0958037	-1.91682
H	1.77483	1.4417	0.405827
H	-0.179158	0.706641	2.20495
H	-1.81675	-1.0144	0.800488
C	6.38021	-0.117277	-0.452196
C	5.18994	-0.475345	-1.04901
N	4.1364	-0.19848	-0.242833
C	4.67106	0.32934	0.849951
N	6.0211	0.399787	0.772498
H	7.42261	-0.191353	-0.800702
H	5.07248	-0.9285	-2.04686
H	4.11984	0.681168	1.73686
H	6.67054	0.776514	1.50569
