18
  This energy is -1.3764 and Call times are: 208100
C	-0.803739	-0.797941	0.0607877
C	-0.23992	-0.242987	1.17187
C	0.714344	0.706082	0.693577
C	0.649423	0.647309	-0.667564
O	-0.272471	-0.265964	-1.07136
H	-1.58201	-1.56986	-0.0562229
H	-0.472659	-0.478344	2.22284
H	1.36859	1.35288	1.29997
H	1.19892	1.19592	-1.45008
C	5.48324	0.614361	-0.477006
C	4.63306	-0.254146	-1.12818
N	3.7306	-0.789465	-0.270568
C	4.01982	-0.255088	0.908168
N	5.06889	0.598048	0.836094
H	6.32569	1.22258	-0.842899
H	4.65467	-0.504095	-2.20145
H	3.49538	-0.45381	1.8567
H	5.48697	1.14321	1.62936
