18
  This energy is -0.8008 and Call times are: 177540
C	-0.794691	-0.579196	0.565154
C	0.382941	-1.14576	0.174564
C	1.10816	-0.115634	-0.498497
C	0.309679	0.989492	-0.459789
O	-0.856368	0.724445	0.186041
H	-1.65873	-0.991734	1.1115
H	0.708285	-2.18486	0.343467
H	2.10759	-0.197233	-0.955199
H	0.454708	2.01028	-0.849937
C	4.96388	-0.467178	-0.937768
C	5.118	0.873571	-0.65531
N	5.78647	1.0538	0.509667
C	6.04606	-0.170485	0.948262
N	5.57047	-1.12221	0.11064
H	4.48155	-0.98427	-1.78247
H	4.75884	1.71409	-1.27124
H	6.58126	-0.427009	1.8767
H	5.64888	-2.16116	0.235978
