18
  This energy is -1.4412 and Call times are: 60851
C	0.618694	0.927748	0.207131
C	-0.261164	0.853642	-0.832452
C	-0.838785	-0.450861	-0.763579
C	-0.260913	-1.05876	0.312012
O	0.631722	-0.231325	0.916632
H	1.28574	1.73818	0.54402
H	-0.481342	1.63883	-1.57346
H	-1.59586	-0.878198	-1.44057
H	-0.397565	-2.06341	0.744731
C	3.78978	-1.03668	-0.223744
C	4.27282	-0.135376	-1.14866
N	4.79684	0.956064	-0.539828
C	4.63948	0.732709	0.757853
N	4.03707	-0.455601	0.999933
H	3.30377	-2.01774	-0.345668
H	4.25261	-0.253072	-2.24437
H	4.94727	1.40612	1.57395
H	3.80297	-0.857673	1.94057
