18
  This energy is -1.0163 and Call times are: 206249
C	-0.905235	0.640133	0.239125
C	-0.461602	0.449852	-1.03655
C	0.680536	-0.401254	-0.930459
C	0.834022	-0.65594	0.400687
O	-0.125738	-0.027911	1.12969
H	-1.75261	1.22053	0.639563
H	-0.89515	0.866991	-1.95966
H	1.3086	-0.775214	-1.75495
H	1.57582	-1.25977	0.948746
C	4.56855	-0.628125	-0.769301
C	4.61551	-0.799513	0.59802
N	5.44771	0.101031	1.17506
C	5.91525	0.828326	0.169535
N	5.41503	0.427866	-1.02336
H	4.01126	-1.16498	-1.55336
H	4.06381	-1.55682	1.17851
H	6.62624	1.66626	0.250732
H	5.63089	0.842758	-1.96279
