18
  This energy is -1.2788 and Call times are: 148195
C	-1.12806	0.0689731	0.0955273
C	-0.497602	0.0438318	-1.11371
C	0.89835	-0.0462401	-0.825056
C	0.997708	-0.0681896	0.535098
O	-0.230157	0.00138291	1.11347
H	-2.19585	0.132217	0.362146
H	-0.968343	0.0846234	-2.10912
H	1.72514	-0.0891696	-1.55216
H	1.87225	-0.130272	1.20336
C	5.48529	-1.04771	0.227806
C	5.38099	-0.433992	-1.00249
N	4.76415	0.768147	-0.898136
C	4.48685	0.899707	0.391986
N	4.90167	-0.168892	1.11282
H	5.91907	-2.01535	0.526206
H	5.73976	-0.837074	-1.96356
H	3.9813	1.75834	0.862517
H	4.79838	-0.302493	2.14856
