18
  This energy is -0.8487 and Call times are: 57815
C	0.51662	0.276756	0.971036
C	-0.81883	0.471015	0.773014
C	-1.08968	0.005707	-0.549954
C	0.104164	-0.43182	-1.04359
O	1.0961	-0.273791	-0.128108
H	1.16519	0.485533	1.83765
H	-1.54076	0.899039	1.48695
H	-2.06337	0.00123055	-1.06571
H	0.375875	-0.870473	-2.01776
C	6.0848	0.629799	0.136403
C	5.29827	0.0969267	1.13568
N	4.23822	-0.571036	0.61933
C	4.36663	-0.452998	-0.69528
N	5.46445	0.262379	-1.03678
H	7.01118	1.22463	0.1758
H	5.47669	0.182468	2.21998
H	3.68518	-0.870901	-1.45371
H	5.78246	0.493167	-2.00985
