18
  This energy is -1.3931 and Call times are: 84247
C	0.958624	-0.51771	-0.315305
C	0.716372	0.797437	-0.583775
C	-0.573225	1.077	-0.0370563
C	-1.00519	-0.0919897	0.517243
O	-0.0822118	-1.07653	0.356556
H	1.82129	-1.16413	-0.545975
H	1.3793	1.50019	-1.11365
H	-1.10897	2.0396	-0.0587618
H	-1.93687	-0.349426	1.04728
C	4.15236	-0.219594	0.957825
C	4.29199	0.99116	0.313061
N	5.11503	0.882299	-0.758039
C	5.48459	-0.391148	-0.777683
N	4.9308	-1.09705	0.236519
H	3.57344	-0.509228	1.84917
H	3.81361	1.94131	0.601537
H	6.15901	-0.859584	-1.5125
H	5.06824	-2.11822	0.435478
