18
  This energy is -0.8573 and Call times are: 145706
C	-0.575745	-0.401069	-0.891102
C	0.780774	-0.503061	-0.791966
C	1.12901	0.108061	0.451168
C	-0.0454513	0.529551	1.00195
O	-1.09683	0.226856	0.195727
H	-1.27846	-0.730992	-1.67378
H	1.46731	-0.962546	-1.5211
H	2.13922	0.216609	0.877517
H	-0.263635	1.04994	1.94897
C	5.12034	0.370455	0.88652
C	5.00497	-0.817339	0.195882
N	5.95604	-0.918697	-0.764179
C	6.65874	0.201956	-0.669498
N	6.19421	1.01215	0.311009
H	4.53381	0.790489	1.71904
H	4.25253	-1.603	0.37313
H	7.52343	0.480047	-1.29337
H	6.57882	1.95037	0.581313
