18
  This energy is -1.7318 and Call times are: 124064
C	-0.0322228	1.02479	0.484947
C	-0.178696	-0.126962	1.20076
C	-0.0809217	-1.1913	0.253272
C	0.116669	-0.595995	-0.957903
O	0.149104	0.757103	-0.835082
H	-0.0376504	2.08308	0.79355
H	-0.339466	-0.217921	2.28703
H	-0.150812	-2.27155	0.45885
H	0.247284	-1.01862	-1.96764
C	3.59214	-0.715995	0.219616
C	4.89418	-1.08691	-0.0416463
N	5.67903	-0.00184912	-0.249414
C	4.86698	1.03825	-0.117546
N	3.59798	0.659951	0.165512
H	2.69185	-1.31387	0.433091
H	5.28134	-2.11801	-0.0839516
H	5.14948	2.09859	-0.218066
H	2.77528	1.294	0.315234
