18
  This energy is -0.532 and Call times are: 190441
C	0.719293	0.561628	-0.673492
C	1.01335	-0.663486	-0.150997
C	-0.121783	-1.03773	0.631012
C	-1.00929	-0.00827274	0.517357
O	-0.512044	0.977041	-0.275682
H	1.29405	1.23215	-1.33327
H	1.93695	-1.24528	-0.301197
H	-0.253273	-1.96738	1.20768
H	-2.01396	0.14153	0.945669
C	5.30704	-0.613166	0.152184
C	6.36322	-0.939764	-0.671809
N	7.34431	-0.0075522	-0.601397
C	6.89847	0.893936	0.262991
N	5.67437	0.573955	0.74548
H	4.35189	-1.12446	0.351697
H	6.43492	-1.83134	-1.31586
H	7.42789	1.80736	0.578588
H	5.11223	1.12516	1.43933
