18
  This energy is -1.4373 and Call times are: 104674
C	1.09216	-0.0304025	-0.304416
C	0.699363	0.0640974	0.998334
C	-0.728757	0.0744366	0.976351
C	-1.0826	-0.0146584	-0.337892
O	0.0168812	-0.079563	-1.1341
H	2.09279	-0.070996	-0.76522
H	1.35002	0.120834	1.88576
H	-1.40553	0.140783	1.84334
H	-2.06905	-0.0408662	-0.829283
C	4.49876	-0.452023	1.04404
C	4.9496	-1.1457	-0.0590014
N	5.20375	-0.307457	-1.09306
C	4.91169	0.901639	-0.633263
N	4.48225	0.867456	0.65048
H	4.19852	-0.792606	2.04773
H	5.09605	-2.23599	-0.127236
H	4.99416	1.84639	-1.1944
H	4.19201	1.68948	1.23469
