18
  This energy is -0.9305 and Call times are: 89856
C	0.842832	0.352746	0.672015
C	-0.462781	0.372893	1.06615
C	-1.212	-0.140112	-0.0364044
C	-0.298077	-0.428462	-1.00696
O	0.961857	-0.133691	-0.591402
H	1.76785	0.65352	1.19079
H	-0.858568	0.714718	2.036
H	-2.30417	-0.27512	-0.0913719
H	-0.415515	-0.841483	-2.02228
C	6.65118	1.09328	-0.356012
C	6.15186	0.717435	0.873037
N	5.98109	-0.62521	0.941246
C	6.37298	-1.08058	-0.240992
N	6.78602	-0.0833217	-1.05859
H	6.91143	2.08179	-0.766696
H	5.91176	1.391	1.71179
H	6.37816	-2.13508	-0.560709
H	7.14129	-0.186725	-2.04061
