18
  This energy is -1.0812 and Call times are: 146564
C	-0.789349	0.650683	-0.489838
C	-0.143655	1.02116	0.653053
C	0.761149	-0.0424689	0.953277
C	0.588495	-0.969024	-0.0326542
O	-0.354639	-0.562083	-0.922547
H	-1.5677	1.15469	-1.08599
H	-0.289853	1.95024	1.2271
H	1.45596	-0.102026	1.80638
H	1.06909	-1.94496	-0.211076
C	5.66179	-0.659297	-0.858589
C	4.35808	-0.679298	-0.410138
N	4.17274	0.212622	0.593175
C	5.35696	0.783775	0.766493
N	6.2881	0.292233	-0.0849534
H	6.17118	-1.23562	-1.6472
H	3.54789	-1.32132	-0.792554
H	5.5976	1.56748	1.50278
H	7.29525	0.580967	-0.144435
