18
  This energy is -0.5385 and Call times are: 170882
C	0.199452	-0.0791258	1.11371
C	0.969982	0.68352	0.286049
C	0.412691	0.528545	-1.01991
C	-0.649195	-0.315124	-0.87501
O	-0.794096	-0.696112	0.42147
H	0.253797	-0.263539	2.1992
H	1.8432	1.29398	0.566988
H	0.767913	0.994951	-1.95285
H	-1.37027	-0.71517	-1.60663
C	7.21379	0.595323	0.0538992
C	7.06064	-0.76428	-0.116885
N	5.75046	-1.11028	-0.13231
C	5.09332	0.0303282	0.0282941
N	5.93107	1.08773	0.145267
H	8.11476	1.22626	0.114849
H	7.87202	-1.50176	-0.229251
H	3.99842	0.148152	0.0675362
H	5.65588	2.09142	0.279908
