18
  This energy is -1.1729 and Call times are: 84503
C	-0.0799759	0.781832	-0.817767
C	0.864283	0.846098	0.164383
C	0.646597	-0.297839	0.99151
C	-0.411469	-0.960165	0.441789
O	-0.867728	-0.314876	-0.663853
H	-0.292806	1.44548	-1.67189
H	1.63662	1.62129	0.293458
H	1.2166	-0.585927	1.88939
H	-0.927187	-1.88819	0.738534
C	5.97871	-0.380433	0.752224
C	6.96787	-1.13394	0.156462
N	7.74081	-0.371875	-0.654913
C	7.23309	0.849751	-0.562856
N	6.16914	0.896557	0.273457
H	5.17941	-0.653461	1.45941
H	7.13767	-2.21381	0.29754
H	7.60174	1.74655	-1.08638
H	5.59811	1.74414	0.511759
