18
  This energy is -0.8892 and Call times are: 155014
C	-0.224132	0.702243	0.861986
C	-0.924118	0.735472	-0.30818
C	-0.356263	-0.283392	-1.13254
C	0.640602	-0.849292	-0.393361
O	0.735348	-0.259639	0.827436
H	-0.310488	1.30207	1.78286
H	-1.75681	1.40981	-0.565068
H	-0.661134	-0.556078	-2.15567
H	1.34436	-1.66711	-0.619511
C	5.69085	0.390729	-0.77909
C	4.76674	-0.614386	-0.971212
N	4.01299	-0.80388	0.13895
C	4.46776	0.0803168	1.01645
N	5.47962	0.824541	0.51063
H	6.45824	0.81388	-1.44662
H	4.63037	-1.20623	-1.89098
H	4.09577	0.225217	2.04351
H	6.00344	1.58679	1.00646
