18
  This energy is -1.0109 and Call times are: 72156
C	-0.143983	1.05916	0.379275
C	-0.0300863	-0.0086563	1.22021
C	0.136323	-1.15184	0.38023
C	0.109427	-0.681686	-0.89985
O	-0.0610134	0.666494	-0.919163
H	-0.285367	2.13427	0.577781
H	-0.0602321	0.00711083	2.32154
H	0.260853	-2.19865	0.700812
H	0.199584	-1.1972	-1.87009
C	3.92526	0.0356631	0.0616609
C	4.81652	0.350576	1.06547
N	6.09669	0.197685	0.647963
C	5.99997	-0.210524	-0.610066
N	4.71134	-0.323702	-1.01031
H	2.82399	0.0416587	0.0351758
H	4.55879	0.685362	2.08347
H	6.841	-0.440962	-1.28371
H	4.3751	-0.627351	-1.95688
