18
  This energy is -1.0678 and Call times are: 154258
C	-0.0248237	-0.587579	0.969812
C	-1.10099	-0.509264	0.135484
C	-0.686568	0.305883	-0.961743
C	0.606264	0.653733	-0.701054
O	1.02663	0.116805	0.474536
H	0.117843	-1.10564	1.93237
H	-2.08768	-0.978447	0.278371
H	-1.28805	0.594373	-1.83872
H	1.32556	1.26987	-1.26518
C	4.13659	0.4686	0.851697
C	5.04287	1.13003	0.0502567
N	5.63146	0.280283	-0.826102
C	5.09237	-0.903805	-0.569306
N	4.18517	-0.842678	0.434115
H	3.48233	0.826303	1.66259
H	5.28259	2.20516	0.0886631
H	5.32587	-1.84864	-1.08602
H	3.62546	-1.64191	0.820393
