18
  This energy is -0.8579 and Call times are: 122343
C	-0.488755	0.297583	-0.979267
C	0.765626	-0.234888	-0.921158
C	1.02505	-0.474251	0.462865
C	-0.0936996	-0.0669208	1.12834
O	-1.02842	0.407272	0.263207
H	-1.10097	0.635082	-1.83164
H	1.44053	-0.438663	-1.76796
H	1.94109	-0.900511	0.902499
H	-0.344951	-0.0624715	2.2017
C	5.8856	1.04388	0.244119
C	4.94226	0.374316	0.994404
N	4.60478	-0.804066	0.416444
C	5.33598	-0.865302	-0.68819
N	6.12471	0.225269	-0.837032
H	6.38696	2.01266	0.397915
H	4.4991	0.720384	1.9424
H	5.33282	-1.68599	-1.4235
H	6.79136	0.4117	-1.62575
