18
  This energy is -1.3843 and Call times are: 62470
C	0.710439	0.204918	0.86005
C	-0.59038	-0.154849	1.05705
C	-1.1514	-0.322104	-0.24579
C	-0.143889	-0.0497793	-1.12393
O	1.00034	0.273923	-0.465925
H	1.52069	0.436272	1.57084
H	-1.10339	-0.288993	2.02293
H	-2.18588	-0.61171	-0.490896
H	-0.114246	-0.0511447	-2.22591
C	4.11079	0.846683	-0.795249
C	4.30413	1.01244	0.559849
N	4.49372	-0.179689	1.1758
C	4.41828	-1.08158	0.206509
N	4.18855	-0.512713	-1.00064
H	3.92942	1.57558	-1.60108
H	4.31022	1.97086	1.10413
H	4.52391	-2.17196	0.325403
H	4.0887	-1.01207	-1.91821
