18
  This energy is -1.3183 and Call times are: 182195
C	0.0687902	1.10965	-0.224381
C	-0.842878	0.296827	-0.831468
C	-0.620622	-1.00853	-0.295958
C	0.407244	-0.878154	0.591099
O	0.840516	0.408743	0.647503
H	0.267017	2.18938	-0.325113
H	-1.5963	0.587329	-1.58118
H	-1.16745	-1.93134	-0.547915
H	0.914718	-1.6147	1.23548
C	4.19657	-0.689247	0.644375
C	4.19977	0.689164	0.610916
N	5.14322	1.15501	-0.243142
C	5.72309	0.0697264	-0.737638
N	5.18771	-1.06734	-0.233615
H	3.5797	-1.40402	1.21191
H	3.53824	1.35589	1.18773
H	6.54455	0.0505732	-1.47185
H	5.47325	-2.04978	-0.467163
