18
  This energy is -0.8745 and Call times are: 209808
C	-0.766577	0.835688	-0.0196233
C	0.568911	1.06577	-0.174242
C	1.19824	-0.213776	-0.0916701
C	0.191774	-1.11282	0.106117
O	-1.01491	-0.489317	0.152718
H	-1.63047	1.52045	-0.0129569
H	1.06145	2.03892	-0.330741
H	2.27574	-0.429962	-0.17142
H	0.203537	-2.20842	0.227673
C	5.86162	0.873343	-0.701136
C	4.97203	0.968834	0.347984
N	4.7831	-0.235662	0.939594
C	5.55255	-1.0752	0.260077
N	6.22324	-0.4548	-0.739364
H	6.24999	1.63124	-1.39992
H	4.46314	1.88526	0.688636
H	5.6623	-2.15469	0.45215
H	6.8914	-0.900597	-1.41471
