18
  This energy is -1.1679 and Call times are: 11742
C	-0.843006	0.510132	0.561701
C	-0.341753	-0.700966	0.93901
C	0.690852	-1.00629	0.000594146
C	0.729454	0.0451872	-0.867326
O	-0.200494	0.980509	-0.539633
H	-1.64556	1.13416	0.988018
H	-0.666575	-1.31748	1.79253
H	1.32583	-1.90659	-0.0181341
H	1.36367	0.244395	-1.74672
C	4.30146	0.786441	0.359075
C	4.28458	-0.573249	0.587334
N	5.36243	-1.17584	0.0290861
C	6.04537	-0.193721	-0.543319
N	5.44674	1.00879	-0.372414
H	3.60282	1.58492	0.655522
H	3.51399	-1.13025	1.14483
H	6.9902	-0.299553	-1.1004
H	5.78971	1.93418	-0.729164
