18
  This energy is -1.1376 and Call times are: 21561
C	0.488223	0.366598	-0.955848
C	0.619728	1.02592	0.230903
C	-0.12678	0.268051	1.18405
C	-0.648565	-0.787489	0.495606
O	-0.28311	-0.743153	-0.812633
H	0.888719	0.58187	-1.9601
H	1.18565	1.95295	0.416491
H	-0.254736	0.490652	2.25557
H	-1.28676	-1.62671	0.817563
C	6.02862	-0.228491	-0.243116
C	4.92487	-0.685879	-0.93136
N	3.77749	-0.226568	-0.375435
C	4.16794	0.512953	0.653777
N	5.5162	0.543214	0.77575
H	7.10651	-0.392087	-0.401009
H	4.93587	-1.33907	-1.81909
H	3.50822	1.05447	1.35074
H	6.06637	1.05671	1.50712
