18
  This energy is -1.1354 and Call times are: 28414
C	0.329631	-0.599028	0.904936
C	-0.64723	-1.03326	0.0578496
C	-0.776127	-0.021274	-0.94184
C	0.133346	0.942039	-0.6174
O	0.817462	0.605642	0.507693
H	0.762477	-1.04882	1.81355
H	-1.21962	-1.97204	0.12976
H	-1.46833	-0.0194093	-1.79913
H	0.386844	1.90033	-1.09975
C	5.51789	0.762011	-0.793598
C	6.21466	-0.254995	-0.176052
N	5.42121	-0.939051	0.683613
C	4.23672	-0.34866	0.599699
N	4.24362	0.682686	-0.277722
H	5.82831	1.51158	-1.5388
H	7.27567	-0.507427	-0.335391
H	3.33007	-0.631231	1.1586
H	3.43276	1.30359	-0.51905
