18
  This energy is -0.4151 and Call times are: 179330
C	-0.453957	-0.93394	-0.456158
C	-1.19788	-0.0221156	0.233431
C	-0.284939	0.996383	0.644918
C	0.936273	0.617039	0.170457
O	0.85161	-0.559541	-0.504453
H	-0.731581	-1.87741	-0.954201
H	-2.28087	-0.0626642	0.43238
H	-0.519361	1.90252	1.22634
H	1.92891	1.09071	0.244959
C	6.25	0.11159	1.17053
C	5.34806	0.606958	0.252783
N	5.71594	0.291948	-1.0129
C	6.84182	-0.396227	-0.880846
N	7.20555	-0.532138	0.416388
H	6.27854	0.169665	2.27024
H	4.43847	1.18602	0.481218
H	7.44078	-0.823668	-1.70107
H	8.05385	-1.03255	0.778659
