18
  This energy is -1.3736 and Call times are: 134462
C	0.888734	0.177798	-0.681866
C	-0.276681	0.875865	-0.803863
C	-1.14108	0.375139	0.217022
C	-0.427578	-0.584713	0.872748
O	0.814247	-0.718476	0.337034
H	1.83192	0.224536	-1.25061
H	-0.504763	1.66431	-1.53901
H	-2.17261	0.698156	0.430784
H	-0.687117	-1.23469	1.72447
C	4.71096	-1.15231	0.146739
C	5.76108	-0.565213	-0.526843
N	5.66475	0.786257	-0.499272
C	4.55909	1.03662	0.188797
N	3.94791	-0.0995277	0.600165
H	4.46099	-2.20952	0.32941
H	6.5865	-1.09257	-1.03223
H	4.15114	2.03365	0.420642
H	3.06165	-0.165803	1.1582
