18
  This energy is -1.6773 and Call times are: 53750
C	-0.144683	1.11681	-0.134892
C	0.2021	0.295287	-1.16698
C	0.287536	-1.01728	-0.610212
C	-0.014581	-0.881971	0.712962
O	-0.281208	0.414653	1.02068
H	-0.322172	2.20404	-0.0937552
H	0.379904	0.58457	-2.21522
H	0.544752	-1.94801	-1.14093
H	-0.0731948	-1.62105	1.52879
C	4.60271	-0.608949	0.872673
C	4.4589	0.760143	0.794893
N	3.83185	1.12128	-0.350928
C	3.58759	-0.0194344	-0.981586
N	4.03323	-1.0914	-0.28453
H	5.05491	-1.25259	1.64389
H	4.79636	1.49382	1.54502
H	3.08533	-0.126994	-1.95647
H	3.95905	-2.09822	-0.571024
