18
  This energy is -1.0548 and Call times are: 63878
C	-0.664727	0.561807	0.727263
C	-0.0385568	1.1784	-0.315853
C	0.694387	0.155605	-0.991717
C	0.451405	-0.995721	-0.301949
O	-0.376656	-0.766148	0.750963
H	-1.33276	0.951739	1.51272
H	-0.0878521	2.24635	-0.582605
H	1.32636	0.272866	-1.88668
H	0.803193	-2.02891	-0.456891
C	6.23731	0.292936	0.0762435
C	5.23907	0.610678	0.972735
N	4.04483	0.111399	0.571435
C	4.30123	-0.513705	-0.569674
N	5.6091	-0.432856	-0.911059
H	7.31435	0.524227	0.0711509
H	5.35915	1.19124	1.90192
H	3.56812	-1.04698	-1.19609
H	6.05887	-0.844611	-1.76512
