18
  This energy is -2.2487 and Call times are: 172715
C	-0.166248	-0.503954	1.00239
C	-0.193525	-1.19244	-0.17473
C	0.0545124	-0.227307	-1.19802
C	0.211465	0.965755	-0.555879
O	0.0798377	0.815387	0.788397
H	-0.305292	-0.833095	2.04527
H	-0.370553	-2.27167	-0.308972
H	0.108033	-0.409454	-2.2834
H	0.41754	1.9795	-0.93681
C	3.41763	1.08687	-0.412979
C	3.31815	0.672382	0.898299
N	3.59619	-0.648771	1.01558
C	3.86714	-1.05236	-0.218248
N	3.77301	-0.0427599	-1.11571
H	3.26574	2.07286	-0.880196
H	3.05073	1.30295	1.76185
H	4.14022	-2.07621	-0.520555
H	3.9391	-0.108069	-2.14983
