18
  This energy is -0.7465 and Call times are: 201807
C	-0.642235	-0.597671	-0.718836
C	-1.08308	0.548682	-0.125619
C	-0.00679431	1.00234	0.696528
C	0.996738	0.0931679	0.533136
O	0.625935	-0.890784	-0.327884
H	-1.12824	-1.28724	-1.42845
H	-2.06743	1.02685	-0.254096
H	0.00925335	1.90219	1.33223
H	2.00828	0.0348264	0.967457
C	6.27895	-0.253626	0.602018
C	5.41878	-1.1508	0.0050851
N	4.39114	-0.511098	-0.604215
C	4.61295	0.778031	-0.386105
N	5.73911	0.985075	0.336715
H	7.2061	-0.40397	1.17763
H	5.52126	-2.24823	0.00312968
H	3.98247	1.61249	-0.733105
H	6.12711	1.91251	0.63769
