18
  This energy is -0.8312 and Call times are: 129249
C	-0.554338	0.877547	0.457188
C	0.786095	0.910515	0.207135
C	1.10929	-0.359681	-0.360549
C	-0.062175	-1.05672	-0.407287
O	-1.08856	-0.316355	0.0881081
H	-1.23616	1.62842	0.889115
H	1.47787	1.74553	0.402815
H	2.10147	-0.705304	-0.692527
H	-0.294307	-2.0732	-0.765237
C	6.01482	-0.966611	0.527901
C	5.05019	-0.91024	-0.455695
N	4.81485	0.368852	-0.836547
C	5.63038	1.1032	-0.0920527
N	6.37486	0.344375	0.746709
H	6.45584	-1.81845	1.06957
H	4.51982	-1.76959	-0.897368
H	5.72282	2.20087	-0.120611
H	7.09007	0.689043	1.43296
