18
  This energy is -1.3014 and Call times are: 8179
C	0.670114	-0.110405	0.908383
C	0.119658	1.08427	0.547657
C	-0.647663	0.822078	-0.62818
C	-0.498369	-0.509674	-0.882191
O	0.303243	-1.09485	0.046246
H	1.33124	-0.387619	1.74583
H	0.241714	2.05297	1.05835
H	-1.23882	1.54708	-1.21042
H	-0.904892	-1.1517	-1.68081
C	3.84416	-0.566452	-0.388074
C	4.68138	-0.960293	0.634229
N	5.68564	-0.0683839	0.814427
C	5.47225	0.875186	-0.0926379
N	4.37385	0.620611	-0.842501
H	2.93912	-1.0314	-0.810277
H	4.57879	-1.87203	1.24502
H	6.08943	1.77422	-0.250944
H	3.99744	1.21438	-1.62162
