18
  This energy is -1.1003 and Call times are: 25457
C	-0.63051	0.112642	0.936039
C	-0.244604	1.18188	0.18226
C	0.52384	0.643944	-0.894883
C	0.539683	-0.706529	-0.704244
O	-0.160371	-1.04861	0.409273
H	-1.23244	0.0466773	1.85722
H	-0.477691	2.24296	0.366292
H	1.00502	1.20502	-1.71205
H	1.00697	-1.52098	-1.2818
C	5.8236	-0.113895	0.720476
C	5.16416	-1.12506	0.0542615
N	4.14391	-0.634965	-0.690993
C	4.17031	0.675255	-0.487886
N	5.16507	1.03913	0.355705
H	6.68612	-0.132608	1.40549
H	5.40628	-2.19945	0.097983
H	3.48434	1.41445	-0.932031
H	5.39153	2.01387	0.671687
