18
  This energy is -1.2789 and Call times are: 154450
C	0.306303	-0.629025	-0.892696
C	0.360431	0.733787	-0.906385
C	-0.0979272	1.15622	0.378751
C	-0.391688	0.014261	1.06432
O	-0.150761	-1.08547	0.303031
H	0.561894	-1.3786	-1.65955
H	0.690062	1.37705	-1.73804
H	-0.194337	2.19214	0.741623
H	-0.773858	-0.147534	2.0856
C	3.74738	0.345163	0.397428
C	4.29346	0.613637	-0.839852
N	5.52475	0.0606589	-0.960927
C	5.7417	-0.54855	0.196839
N	4.69949	-0.406115	1.04954
H	2.78086	0.62619	0.845078
H	3.82108	1.19643	-1.64735
H	6.64661	-1.11344	0.473008
H	4.62998	-0.794069	2.02213
