18
  This energy is -1.1912 and Call times are: 57719
C	-0.18953	0.919703	0.636101
C	-1.2031	0.176376	0.106461
C	-0.574486	-0.881017	-0.619406
C	0.767726	-0.690504	-0.469255
O	1.0209	0.404689	0.294595
H	-0.19828	1.82522	1.26476
H	-2.28489	0.354777	0.215941
H	-1.07199	-1.68546	-1.18461
H	1.63363	-1.25624	-0.85057
C	4.26934	0.074523	-0.990864
C	4.55973	1.09968	-0.115728
N	5.3097	0.65779	0.922919
C	5.48391	-0.636588	0.693006
N	4.87587	-1.03658	-0.448873
H	3.69322	0.057599	-1.92966
H	4.24154	2.15026	-0.215157
H	6.04811	-1.33809	1.32846
H	4.86799	-2.00803	-0.845717
