18
  This energy is -1.6042 and Call times are: 144723
C	-0.319811	-0.913322	-0.591579
C	-0.24394	-0.914918	0.770264
C	0.18803	0.395543	1.13933
C	0.337997	1.08226	-0.0295572
O	0.0321097	0.298288	-1.09672
H	-0.606853	-1.69979	-1.30875
H	-0.469532	-1.75467	1.44703
H	0.363951	0.773853	2.15915
H	0.651998	2.11917	-0.233201
C	4.81122	1.15428	-0.200909
C	5.59936	0.145478	-0.713073
N	5.18722	-1.06802	-0.272531
C	4.14736	-0.81301	0.509956
N	3.88079	0.512439	0.585548
H	4.84549	2.24704	-0.335932
H	6.45799	0.271501	-1.39258
H	3.54493	-1.55966	1.05201
H	3.11183	0.964942	1.138
