18
  This energy is -0.6634 and Call times are: 60210
C	-0.846974	-0.469205	0.590663
C	0.273397	0.0275877	1.18928
C	1.09376	0.525652	0.131422
C	0.402279	0.289252	-1.02025
O	-0.785184	-0.317736	-0.758504
H	-1.74732	-0.949094	1.00819
H	0.499465	0.0418772	2.2676
H	2.08235	1.00289	0.226478
H	0.643382	0.502369	-2.07462
C	5.0872	0.804726	0.478982
C	5.78868	-0.179294	1.14289
N	6.51187	-0.931703	0.27838
C	6.26	-0.416418	-0.917306
N	5.40653	0.632662	-0.849405
H	4.40609	1.58909	0.845585
H	5.78592	-0.359831	2.23021
H	6.67403	-0.768752	-1.87578
H	5.05503	1.20577	-1.65517
