18
  This energy is -0.5074 and Call times are: 165075
C	-0.777947	0.203842	0.79978
C	0.549673	0.450088	0.992557
C	1.19808	0.0710538	-0.222358
C	0.209454	-0.373354	-1.0503
O	-1.00377	-0.299302	-0.44234
H	-1.65043	0.341888	1.4593
H	1.02473	0.857747	1.89933
H	2.27582	0.126403	-0.444842
H	0.239167	-0.762696	-2.08122
C	7.37573	-0.0591303	0.655404
C	7.0271	0.946837	-0.220743
N	5.83322	0.690801	-0.808624
C	5.44268	-0.46959	-0.29912
N	6.33858	-0.962488	0.588573
H	8.25901	-0.191673	1.30022
H	7.61563	1.85279	-0.43922
H	4.50946	-1.00315	-0.541305
H	6.25841	-1.86151	1.12392
