18
  This energy is -1.0353 and Call times are: 188168
C	0.17665	1.07318	0.321671
C	-0.92113	0.364619	0.713063
C	-0.788056	-0.925134	0.113944
C	0.379298	-0.890864	-0.590672
O	0.981619	0.321914	-0.474966
H	0.496156	2.10561	0.539087
H	-1.74224	0.715033	1.35888
H	-1.48548	-1.77354	0.202884
H	0.883964	-1.65301	-1.20687
C	4.59227	-1.09641	0.373935
C	4.1423	-0.521906	-0.795943
N	4.57126	0.758703	-0.907947
C	5.28463	0.977821	0.188277
N	5.32735	-0.110286	0.99313
H	4.44628	-2.1036	0.795582
H	3.51582	-1.00849	-1.56119
H	5.7974	1.91696	0.451559
H	5.82553	-0.187927	1.91349
