18
  This energy is -2.313 and Call times are: 169705
C	0.159813	0.636684	-0.924929
C	0.206515	-0.72604	-0.959221
C	-0.03913	-1.15949	0.379397
C	-0.214258	-0.0233761	1.11353
O	-0.0961328	1.0829	0.333004
H	0.290352	1.39284	-1.71641
H	0.395036	-1.3622	-1.83891
H	-0.0789346	-2.19854	0.743941
H	-0.42551	0.129676	2.1846
C	3.48775	0.325994	1.00818
C	4.42216	-0.673919	0.840292
N	4.7984	-0.778225	-0.457427
C	4.10005	0.153435	-1.0922
N	3.29507	0.846204	-0.252159
H	2.96375	0.69198	1.9054
H	4.8316	-1.32195	1.63229
H	4.13976	0.370993	-2.1717
H	2.64754	1.63023	-0.511526
