18
  This energy is -0.5641 and Call times are: 16242
C	-0.511896	0.960671	0.318552
C	-1.14868	-0.245441	0.33195
C	-0.190355	-1.19869	-0.129639
C	0.947443	-0.490938	-0.384358
O	0.769032	0.82939	-0.116191
H	-0.85576	1.97202	0.590902
H	-2.18889	-0.443944	0.636343
H	-0.339812	-2.28322	-0.254289
H	1.93699	-0.80593	-0.754263
C	5.88866	0.922802	0.603599
C	5.17157	-0.17739	0.18348
N	5.96299	-1.04961	-0.4869
C	7.16648	-0.492631	-0.482682
N	7.17361	0.697814	0.162592
H	5.58563	1.81999	1.16641
H	4.09733	-0.357444	0.352073
H	8.07763	-0.913568	-0.937478
H	8.00044	1.32912	0.30064
