18
  This energy is -0.9696 and Call times are: 151442
C	-0.626863	-0.458116	0.826784
C	-0.660769	-0.919214	-0.45642
C	0.250223	-0.0998658	-1.19051
C	0.760402	0.789593	-0.291088
O	0.235785	0.585277	0.945862
H	-1.16166	-0.782437	1.73456
H	-1.26653	-1.7527	-0.846865
H	0.491226	-0.171779	-2.26328
H	1.49316	1.60531	-0.404716
C	6.27396	0.0779871	-0.0287062
C	5.40967	0.868488	0.698793
N	4.12156	0.500188	0.49476
C	4.18649	-0.514936	-0.356081
N	5.46252	-0.807794	-0.701868
H	7.37239	0.0829271	-0.112238
H	5.69246	1.69798	1.36724
H	3.33021	-1.07989	-0.758393
H	5.77432	-1.56529	-1.35779
