18
  This energy is -1.7366 and Call times are: 124705
C	0.316818	-1.07422	-0.179097
C	0.20941	-0.543403	1.07273
C	-0.207166	0.810407	0.888938
C	-0.317548	0.987373	-0.458976
O	-0.0012893	-0.153345	-1.12662
H	0.606089	-2.08044	-0.524193
H	0.40401	-1.05397	2.02957
H	-0.39977	1.5582	1.67495
H	-0.607901	1.86484	-1.0598
C	3.39066	0.6039	-0.439881
C	4.07577	-0.423681	-1.05295
N	5.06831	-0.891913	-0.257888
C	4.99922	-0.157602	0.844218
N	4.00385	0.758438	0.783352
H	2.53857	1.21572	-0.776289
H	3.87167	-0.835607	-2.0547
H	5.65312	-0.248763	1.72645
H	3.74798	1.45389	1.52641
