18
  This energy is -1.2699 and Call times are: 101762
C	0.0781458	1.06693	-0.376756
C	0.575898	0.681247	0.833145
C	0.288607	-0.7132	0.947598
C	-0.359344	-1.05654	-0.202467
O	-0.496502	0.0183506	-1.02272
H	0.0695822	2.04476	-0.885719
H	1.09345	1.31512	1.57101
H	0.539124	-1.37546	1.79184
H	-0.767646	-2.01895	-0.552182
C	5.6163	-0.513898	0.58316
C	5.52089	0.533646	-0.308295
N	6.73927	0.874374	-0.794068
C	7.5873	0.0413749	-0.206209
N	6.959	-0.815239	0.633463
H	4.84931	-1.04842	1.16587
H	4.59476	1.04969	-0.609664
H	8.67886	0.0152243	-0.354659
H	7.40897	-1.56592	1.21248
