18
  This energy is -1.671 and Call times are: 67022
C	-0.0152117	-0.791026	-0.81268
C	-0.629259	-0.969641	0.392068
C	-0.391291	0.227733	1.13354
C	0.347167	1.03235	0.316443
O	0.586122	0.426093	-0.876188
H	0.0652892	-1.44517	-1.69635
H	-1.19321	-1.85569	0.725188
H	-0.734052	0.454632	2.15586
H	0.758777	2.04423	0.464461
C	3.55586	-0.524835	0.745586
C	4.62973	-1.10411	0.103413
N	5.27083	-0.206251	-0.683574
C	4.59724	0.925731	-0.530209
N	3.55414	0.785332	0.321736
H	2.8174	-0.938423	1.45068
H	4.95342	-2.15383	0.193844
H	4.82482	1.88716	-1.01815
H	2.87372	1.53222	0.605357
