18
  This energy is -1.6343 and Call times are: 53229
C	0.27321	-0.882216	-0.658371
C	0.971975	0.288962	-0.679451
C	0.334161	1.14198	0.272214
C	-0.698058	0.416771	0.790833
O	-0.75014	-0.821819	0.233884
H	0.402027	-1.82066	-1.22226
H	1.84862	0.528187	-1.30264
H	0.61796	2.17408	0.533591
H	-1.4567	0.665216	1.55109
C	4.56718	-0.993379	-0.608556
C	4.01645	-0.876771	0.650112
N	3.97561	0.418178	1.04754
C	4.49901	1.10232	0.0392616
N	4.87118	0.296346	-0.983229
H	4.75791	-1.87352	-1.24299
H	3.64785	-1.70381	1.27858
H	4.63331	2.19522	-0.00259341
H	5.30808	0.596705	-1.88886
