18
  This energy is -1.6067 and Call times are: 132316
C	0.347821	-0.923847	-0.558505
C	-0.653214	-0.963558	0.36709
C	-0.79969	0.375415	0.842288
C	0.124766	1.11515	0.16513
O	0.834431	0.337782	-0.694569
H	0.80002	-1.71357	-1.18068
H	-1.23056	-1.84711	0.683481
H	-1.51318	0.736428	1.60037
H	0.37316	2.18848	0.204144
C	4.41296	-0.0117587	-1.10201
C	3.88326	1.06837	-0.428297
N	3.50539	0.724	0.826747
C	3.79956	-0.564866	0.931235
N	4.34893	-1.05483	-0.205301
H	4.81746	-0.108726	-2.12206
H	3.76697	2.08999	-0.825318
H	3.63357	-1.19831	1.81748
H	4.66573	-2.04135	-0.371697
