18
  This energy is -0.4926 and Call times are: 191690
C	-1.03125	0.329916	-0.337753
C	0.0896956	0.564169	-1.07868
C	1.17415	0.0085394	-0.333459
C	0.62016	-0.516201	0.797081
O	-0.725849	-0.328918	0.81102
H	-2.09042	0.578388	-0.515738
H	0.147133	1.07681	-2.05233
H	2.23957	0.00472604	-0.614429
H	1.0699	-1.04083	1.656
C	5.85937	0.907246	0.116025
C	5.52313	-0.421572	-0.0334162
N	6.62971	-1.19667	-0.139376
C	7.64856	-0.35191	-0.0559858
N	7.23611	0.928548	0.0986396
H	5.23711	1.80914	0.229721
H	4.50191	-0.834917	-0.0666796
H	8.71696	-0.617645	-0.102252
H	7.84844	1.77607	0.188215
