18
  This energy is -2.1911 and Call times are: 46040
C	-0.586851	0.626935	0.740918
C	-0.200003	1.10597	-0.476148
C	0.505494	0.0381863	-1.11036
C	0.487484	-0.999096	-0.224872
O	-0.175449	-0.657112	0.911164
H	-1.15132	1.09394	1.56465
H	-0.392172	2.11049	-0.886168
H	0.969078	0.0502034	-2.10988
H	0.904644	-2.01781	-0.283587
C	3.69005	-0.989143	0.628172
C	4.25058	-0.862873	-0.625226
N	4.21131	0.423167	-1.05075
C	3.62863	1.09218	-0.0650854
N	3.29554	0.285115	0.969948
H	3.5487	-1.86635	1.27938
H	4.68263	-1.67668	-1.23013
H	3.42146	2.17433	-0.0493489
H	2.82618	0.574869	1.8627
