18
  This energy is -0.6331 and Call times are: 63383
C	0.976126	-0.297106	0.495285
C	-0.113266	-1.11764	0.477424
C	-1.12976	-0.402692	-0.226633
C	-0.571805	0.791627	-0.57686
O	0.713896	0.873158	-0.144034
H	1.983	-0.427944	0.924633
H	-0.19304	-2.12529	0.916041
H	-2.15436	-0.745795	-0.442433
H	-0.979287	1.65557	-1.12714
C	6.21252	-0.797943	0.490611
C	5.14309	-0.16506	1.08805
N	4.54297	0.695325	0.230086
C	5.23746	0.596577	-0.895331
N	6.25458	-0.290972	-0.788998
H	6.9229	-1.54819	0.872742
H	4.79378	-0.313841	2.12279
H	5.04423	1.15137	-1.82759
H	6.94389	-0.544594	-1.53852
