18
  This energy is -1.6863 and Call times are: 31764
C	0.453356	-0.998565	0.289372
C	-0.0207898	-0.115988	1.21491
C	-0.504095	1.00549	0.474089
C	-0.282626	0.709236	-0.838754
O	0.301452	-0.51086	-0.970025
H	0.916142	-1.99324	0.397543
H	-0.0293425	-0.242051	2.3095
H	-0.961877	1.92184	0.880094
H	-0.492312	1.27499	-1.76136
C	3.93345	0.630388	-0.991602
C	3.9555	1.11691	0.29834
N	4.03751	0.108251	1.19967
C	4.06622	-0.999807	0.471648
N	4.00588	-0.737978	-0.855527
H	3.87334	1.14394	-1.96432
H	3.91371	2.17767	0.594816
H	4.13091	-2.02921	0.85942
H	4.01293	-1.44303	-1.63277
