18
  This energy is -0.9445 and Call times are: 199438
C	-0.927387	-0.109321	0.643741
C	-0.419514	1.10761	0.295134
C	0.731782	0.836026	-0.505416
C	0.825816	-0.522886	-0.575342
O	-0.179341	-1.11627	0.120769
H	-1.80363	-0.388993	1.25138
H	-0.815858	2.09724	0.573774
H	1.40556	1.57322	-0.97088
H	1.55149	-1.18044	-1.08159
C	6.16419	-0.795233	0.0765771
C	5.69978	0.0218685	1.08544
N	4.69426	0.817189	0.646222
C	4.53549	0.494709	-0.630266
N	5.3983	-0.472827	-1.02144
H	6.959	-1.55788	0.0627614
H	6.07222	0.0517822	2.12238
H	3.8022	0.935948	-1.32441
H	5.47014	-0.896635	-1.97877
