18
  This energy is -1.2317 and Call times are: 93584
C	-0.996959	0.540799	0.0031349
C	-0.184294	0.500708	1.09782
C	0.959493	-0.260802	0.707986
C	0.744809	-0.618834	-0.590512
O	-0.445212	-0.137782	-1.03711
H	-1.97959	1.01274	-0.161037
H	-0.371501	0.961189	2.08119
H	1.83543	-0.508139	1.329
H	1.35364	-1.20646	-1.2971
C	5.84549	1.02965	0.453376
C	6.65514	-0.0156527	0.062279
N	5.92127	-1.04964	-0.416071
C	4.66114	-0.647321	-0.322086
N	4.56281	0.599782	0.196234
H	6.08339	2.01609	0.882179
H	7.75568	-0.0422779	0.116691
H	3.77159	-1.22621	-0.618432
H	3.67803	1.1369	0.369252
