18
  This energy is -1.3778 and Call times are: 93136
C	0.265857	-0.986967	-0.491546
C	0.121786	-0.858872	0.858717
C	-0.208795	0.511559	1.08839
C	-0.237555	1.09994	-0.141792
O	0.049971	0.199469	-1.11826
H	0.516821	-1.85664	-1.12078
H	0.236771	-1.65006	1.61693
H	-0.401083	0.994176	2.06009
H	-0.446563	2.13708	-0.451456
C	5.17723	0.273395	-0.840389
C	3.98233	-0.394863	-1.00405
N	3.33715	-0.539131	0.178929
C	4.12879	0.0374339	1.07308
N	5.25092	0.542571	0.508055
H	5.95442	0.566664	-1.56393
H	3.57419	-0.775492	-1.95452
H	3.935	0.117834	2.15484
H	6.02885	1.04378	1.0029
