18
  This energy is -1.0478 and Call times are: 133730
C	-0.180217	1.11861	0.0513234
C	0.614282	0.464925	0.946779
C	0.59308	-0.909298	0.557962
C	-0.212502	-0.974068	-0.540772
O	-0.693411	0.255212	-0.864202
H	-0.456563	2.1818	-0.0409696
H	1.16048	0.906188	1.79593
H	1.11957	-1.74537	1.04571
H	-0.518348	-1.82298	-1.17407
C	4.20982	0.732781	0.473009
C	4.90787	-0.262984	1.12287
N	5.73611	-0.914875	0.27106
C	5.55256	-0.325766	-0.902775
N	4.64188	0.673933	-0.833149
H	3.46115	1.45502	0.835504
H	4.82874	-0.522723	2.1911
H	6.05922	-0.58685	-1.84584
H	4.32526	1.28733	-1.62357
