18
  This energy is -0.752 and Call times are: 36642
C	0.296196	-0.958332	0.529404
C	-0.966941	-0.447912	0.595221
C	-0.947113	0.746868	-0.187226
C	0.32639	0.86109	-0.662113
O	1.09928	-0.171696	-0.23432
H	0.743881	-1.86162	0.975385
H	-1.82643	-0.870378	1.1401
H	-1.78817	1.43494	-0.369621
H	0.801664	1.62022	-1.30483
C	6.29626	-0.699272	-0.641355
C	6.66268	0.457157	0.0140456
N	5.60562	1.01048	0.656669
C	4.5873	0.200402	0.400907
N	4.95262	-0.845414	-0.377811
H	6.87719	-1.40503	-1.25614
H	7.67084	0.90217	0.0347376
H	3.55275	0.325993	0.758918
H	4.33078	-1.62001	-0.716316
