18
  This energy is -1.5054 and Call times are: 144851
C	0.776635	-0.0665398	0.8239
C	0.156127	-1.16908	0.314253
C	-0.73931	-0.685545	-0.687995
C	-0.586943	0.669796	-0.702333
O	0.334934	1.06515	0.214647
H	1.5402	0.0442143	1.61127
H	0.313212	-2.21768	0.61402
H	-1.41453	-1.2847	-1.31981
H	-1.06929	1.45335	-1.30949
C	4.88645	-1.01009	0.144506
C	4.85334	0.0592674	1.01429
N	4.07694	1.05897	0.530236
C	3.63009	0.6115	-0.635406
N	4.08999	-0.631471	-0.91308
H	5.40319	-1.98132	0.201394
H	5.37576	0.127372	1.98243
H	2.96347	1.15309	-1.32572
H	3.87988	-1.19869	-1.77062
