18
  This energy is -1.621 and Call times are: 106101
C	-1.09655	-0.132387	0.257779
C	-0.369439	-1.10538	-0.362674
C	0.947299	-0.573007	-0.51398
C	0.90859	0.678318	0.0273705
O	-0.331876	0.963932	0.50348
H	-2.15193	-0.0981	0.574404
H	-0.724689	-2.09839	-0.68179
H	1.81595	-1.07117	-0.973732
H	1.68532	1.45335	0.133469
C	4.98479	1.07785	-0.352088
C	6.15024	0.412057	-0.667671
N	6.18487	-0.813197	-0.0896864
C	5.04524	-0.907155	0.581908
N	4.28693	0.207525	0.455196
H	4.61498	2.07611	-0.635405
H	6.96673	0.793824	-1.30205
H	4.71587	-1.76987	1.18313
H	3.34656	0.376565	0.889226
