18
  This energy is -1.1106 and Call times are: 204005
C	-0.447444	0.498774	-0.915106
C	0.556986	1.06939	-0.189919
C	0.845147	0.153176	0.867267
C	-0.00862904	-0.896437	0.694785
O	-0.805273	-0.702142	-0.389014
H	-0.985973	0.841421	-1.8139
H	1.04593	2.03829	-0.380346
H	1.60193	0.270467	1.65949
H	-0.146211	-1.82861	1.26696
C	5.40851	0.418106	-1.08019
C	6.07375	-0.61135	-0.448659
N	5.57196	-0.829486	0.791152
C	4.59912	0.061256	0.928249
N	4.46113	0.8371	-0.172939
H	5.53792	0.867207	-2.07773
H	6.90679	-1.2006	-0.865397
H	3.95645	0.188695	1.81423
H	3.76507	1.61046	-0.309569
