18
  This energy is -0.9628 and Call times are: 138792
C	0.261914	-0.635719	0.902033
C	-0.301709	0.600841	1.01875
C	-0.478949	1.07732	-0.316045
C	-0.00798876	0.0898628	-1.1306
O	0.448347	-0.963799	-0.403577
H	0.573438	-1.37181	1.66123
H	-0.566126	1.12488	1.95125
H	-0.908109	2.04424	-0.624225
H	0.0569227	0.0167418	-2.22864
C	4.80724	1.14008	0.291978
C	3.84694	0.207388	0.622214
N	4.15743	-1.01243	0.120056
C	5.30597	-0.837137	-0.519276
N	5.73914	0.443642	-0.444718
H	4.89063	2.2143	0.521426
H	2.93563	0.392765	1.21382
H	5.8729	-1.61277	-1.05892
H	6.61752	0.832119	-0.867547
