18
  This energy is -0.7033 and Call times are: 177000
C	1.01002	0.429331	-0.286236
C	0.399956	-0.550015	-1.01361
C	-0.833883	-0.821029	-0.347044
C	-0.868878	0.0166289	0.728817
O	0.249213	0.787417	0.781451
H	1.97302	0.948436	-0.421913
H	0.780617	-1.03312	-1.92783
H	-1.60007	-1.55604	-0.641699
H	-1.62264	0.158644	1.5206
C	5.08911	0.440589	-0.730362
C	6.25446	-0.20728	-1.08161
N	6.95468	-0.582842	0.0161833
C	6.22651	-0.169533	1.04456
N	5.09199	0.453436	0.646597
H	4.28479	0.878784	-1.34241
H	6.60254	-0.410452	-2.10748
H	6.47741	-0.297055	2.10993
H	4.35498	0.867362	1.26849
