18
  This energy is -1.4785 and Call times are: 179619
C	0.365214	0.524759	0.936829
C	-0.379005	1.1602	-0.0132902
C	-0.640827	0.183903	-1.02245
C	-0.0334921	-0.961957	-0.599932
O	0.585709	-0.771945	0.594847
H	0.793246	0.879906	1.88862
H	-0.71036	2.21102	-0.00439047
H	-1.21554	0.327259	-1.95156
H	0.0302403	-1.96523	-1.05229
C	4.24375	1.08601	0.451395
C	3.41815	0.64297	-0.560157
N	3.63469	-0.667512	-0.828961
C	4.591	-1.03606	0.0126311
N	4.9919	-0.0143898	0.805771
H	4.34834	2.07354	0.928241
H	2.67011	1.24542	-1.10084
H	5.03448	-2.04179	0.0903767
H	5.73169	-0.0531391	1.54905
