18
  This energy is -1.0752 and Call times are: 85545
C	0.976576	0.183094	-0.54697
C	0.256672	1.19314	0.0204028
C	-0.890535	0.575	0.605154
C	-0.770399	-0.758219	0.343494
O	0.36404	-1.01548	-0.359269
H	1.92751	0.186836	-1.1046
H	0.508253	2.26588	0.02653
H	-1.70527	1.07318	1.1548
H	-1.41569	-1.61456	0.599484
C	4.9487	-0.578661	1.02353
C	4.34407	0.623056	0.721134
N	4.61456	0.999334	-0.552349
C	5.38407	0.0347184	-1.03814
N	5.61441	-0.939715	-0.12654
H	4.95224	-1.18232	1.94501
H	3.7175	1.22532	1.39903
H	5.80641	-0.00800472	-2.05501
H	6.19037	-1.80534	-0.26875
