18
  This energy is -1.0618 and Call times are: 78624
C	-0.282747	-0.0507032	1.09722
C	0.973005	0.281456	0.681125
C	0.936488	0.237252	-0.74605
C	-0.338356	-0.118017	-1.0761
O	-1.09666	-0.297904	0.0372875
H	-0.717721	-0.145011	2.10576
H	1.83822	0.532423	1.31556
H	1.76776	0.447131	-1.43817
H	-0.824141	-0.273831	-2.05333
C	4.72176	0.637887	-0.71985
C	5.48983	-0.455618	-1.05963
N	6.14441	-0.947503	0.0202215
C	5.78379	-0.162136	1.02609
N	4.9269	0.809062	0.631004
H	4.0656	1.28479	-1.3236
H	5.58341	-0.898463	-2.06461
H	6.11747	-0.253579	2.07229
H	4.50011	1.55108	1.23806
