18
  This energy is -1.577 and Call times are: 141594
C	-0.99465	0.0202594	0.544667
C	-0.592526	-1.0478	-0.202272
C	0.692463	-0.70089	-0.720512
C	0.962143	0.548538	-0.244513
O	-0.0573953	1.00431	0.529973
H	-1.91271	0.200523	1.12769
H	-1.14533	-1.98584	-0.371348
H	1.33405	-1.31648	-1.37129
H	1.83202	1.2115	-0.382569
C	4.84738	1.12619	-0.235794
C	4.83941	0.52275	1.00394
N	4.50991	-0.788194	0.907168
C	4.31421	-0.997236	-0.387678
N	4.50553	0.126359	-1.11879
H	5.06486	2.16181	-0.541954
H	5.0655	1.00981	1.96649
H	4.02942	-1.95389	-0.854516
H	4.4114	0.218344	-2.15991
