18
  This energy is -1.3594 and Call times are: 203813
C	0.508537	-0.498802	0.882603
C	0.599065	-0.990857	-0.386278
C	-0.162153	-0.102261	-1.20546
C	-0.650652	0.854361	-0.364856
O	-0.250927	0.6278	0.914167
H	0.932777	-0.853448	1.83628
H	1.14693	-1.88942	-0.712659
H	-0.321839	-0.174882	-2.29327
H	-1.28557	1.73611	-0.550993
C	4.92178	-0.41041	-1.01919
C	4.17236	-1.10559	-0.0938655
N	3.85591	-0.322719	0.966084
C	4.40693	0.853651	0.699334
N	5.06085	0.851724	-0.486401
H	5.35164	-0.714396	-1.98685
H	3.85431	-2.158	-0.17207
H	4.36227	1.75059	1.33788
H	5.5757	1.65806	-0.917693
