18
  This energy is -1.3838 and Call times are: 132252
C	-0.0382742	0.0888874	-1.13006
C	-0.786298	0.880873	-0.309332
C	-0.468093	0.474603	1.02251
C	0.446291	-0.529784	0.898083
O	0.720422	-0.778476	-0.409593
H	0.0427849	0.044724	-2.22857
H	-1.49142	1.67182	-0.611489
H	-0.877444	0.887928	1.95829
H	0.970101	-1.13923	1.6527
C	4.67165	-1.14311	-0.22118
C	5.39006	-0.351845	0.649988
N	4.92003	0.919195	0.656488
C	3.91386	0.916456	-0.207363
N	3.72421	-0.303638	-0.763234
H	4.76448	-2.20864	-0.484959
H	6.23911	-0.675305	1.27396
H	3.28247	1.78038	-0.470464
H	2.99447	-0.561071	-1.47208
