18
  This energy is -0.7723 and Call times are: 108998
C	-0.42933	-0.746837	0.737774
C	-1.21546	0.109337	0.0240974
C	-0.322986	0.87908	-0.782808
C	0.929743	0.425334	-0.490988
O	0.883562	-0.567667	0.435742
H	-0.679307	-1.52066	1.48206
H	-2.31366	0.190683	0.0620651
H	-0.59163	1.6759	-1.49485
H	1.92156	0.722536	-0.869426
C	6.12306	0.205417	1.11289
C	6.95538	-0.0426304	0.0419781
N	6.24407	-0.235739	-1.09524
C	4.9753	-0.107977	-0.731207
N	4.84984	0.158418	0.590491
H	6.33947	0.405384	2.17436
H	8.05639	-0.0857158	0.0695118
H	4.09843	-0.199794	-1.39219
H	3.95346	0.301834	1.11697
