18
  This energy is -1.0523 and Call times are: 145011
C	-0.457775	-0.937354	-0.445209
C	-0.557347	-0.634836	0.881042
C	0.134251	0.60304	1.05271
C	0.595396	0.947696	-0.183785
O	0.242993	0.0182612	-1.11059
H	-0.836911	-1.79088	-1.03087
H	-1.06672	-1.22426	1.66028
H	0.267718	1.16421	1.99152
H	1.17855	1.81655	-0.530583
C	4.97537	-0.0615948	1.14257
C	4.0618	-0.843767	0.468229
N	3.99668	-0.500254	-0.841072
C	4.86654	0.491253	-0.978461
N	5.48243	0.792844	0.189149
H	5.29005	-0.0528332	2.19824
H	3.44849	-1.64981	0.90297
H	5.09162	1.03202	-1.91181
H	6.20797	1.53598	0.339491
