18
  This energy is -2.3778 and Call times are: 48443
C	-0.175331	-1.06721	-0.341655
C	-0.0717027	-0.729737	0.975823
C	0.143282	0.682074	1.00206
C	0.152049	1.08271	-0.301694
O	-0.0411098	0.0273742	-1.13594
H	-0.342154	-2.03791	-0.836782
H	-0.139818	-1.40705	1.84226
H	0.274994	1.31703	1.89289
H	0.284356	2.0764	-0.760308
C	3.39032	-0.839013	-0.716458
C	4.25651	-1.00612	0.343231
N	4.51777	0.176162	0.95189
C	3.81633	1.07331	0.272381
N	3.1196	0.510865	-0.743398
H	2.96171	-1.56108	-1.42952
H	4.69762	-1.95858	0.679512
H	3.77686	2.15552	0.476055
H	2.49262	1.00831	-1.42216
