18
  This energy is -0.8344 and Call times are: 9852
C	0.00372831	-1.07862	-0.350666
C	-0.629756	-0.683894	0.790939
C	-0.41211	0.72413	0.892014
C	0.335161	1.06553	-0.196749
O	0.598364	-0.0231084	-0.966553
H	0.103507	-2.06788	-0.826745
H	-1.19373	-1.32039	1.49158
H	-0.773785	1.39638	1.6866
H	0.737772	2.03539	-0.532192
C	5.01597	1.00886	0.535363
C	4.15045	0.0152264	0.129534
N	4.82042	-1.00808	-0.453989
C	6.09672	-0.650628	-0.410327
N	6.26659	0.55769	0.176787
H	4.83644	1.97294	1.03722
H	3.05456	0.0183602	0.247321
H	6.9478	-1.23615	-0.793813
H	7.17744	1.05591	0.329703
