18
  This energy is -1.7404 and Call times are: 82006
C	0.21329	1.07954	-0.274765
C	0.688988	0.0317712	-1.00706
C	0.215634	-1.1477	-0.355215
C	-0.507537	-0.716564	0.717874
O	-0.519542	0.640899	0.782383
H	0.324497	2.16915	-0.399809
H	1.31084	0.084201	-1.91517
H	0.397504	-2.19158	-0.657431
H	-1.05495	-1.26807	1.49981
C	4.45138	1.0991	0.337453
C	3.49284	0.266961	0.87586
N	3.47492	-0.931358	0.243228
C	4.41876	-0.842955	-0.68412
N	5.03647	0.361937	-0.667754
H	4.74863	2.12933	0.590063
H	2.81386	0.509759	1.70946
H	4.69887	-1.63087	-1.40173
H	5.81312	0.674934	-1.30029
