18
  This energy is -1.597 and Call times are: 33144
C	0.888874	-0.601637	-0.366521
C	0.685261	0.69676	-0.731321
C	-0.517901	1.10259	-0.0772391
C	-0.943311	0.0163615	0.629522
O	-0.096118	-1.0334	0.464372
H	1.68556	-1.3178	-0.626622
H	1.31877	1.30747	-1.39449
H	-1.00272	2.09051	-0.132442
H	-1.8207	-0.135128	1.27951
C	5.03198	-1.04062	-0.138526
C	4.99552	-0.00267928	-1.04544
N	4.29337	1.04849	-0.557034
C	3.89576	0.66413	0.648285
N	4.31581	-0.588026	0.947033
H	5.50124	-2.0361	-0.187194
H	5.46326	0.00654294	-2.04342
H	3.29491	1.26028	1.35385
H	4.13112	-1.11389	1.8362
