18
  This energy is -1.2529 and Call times are: 7939
C	-0.137135	-1.08175	-0.312124
C	-0.235024	-0.0482352	-1.1968
C	-0.00388576	1.13941	-0.437731
C	0.214845	0.726817	0.843789
O	0.137211	-0.626685	0.938742
H	-0.240336	-2.17108	-0.446121
H	-0.448575	-0.11546	-2.27567
H	-0.00259626	2.1761	-0.81106
H	0.433248	1.28998	1.76596
C	3.77557	-0.348009	0.463167
C	4.24697	0.944684	0.374444
N	5.46531	0.980926	-0.217876
C	5.74866	-0.284472	-0.495556
N	4.76111	-1.12434	-0.104468
H	2.83974	-0.756784	0.876293
H	3.72981	1.85185	0.72721
H	6.66532	-0.651692	-0.984543
H	4.74858	-2.16805	-0.212983
