18
  This energy is -1.0044 and Call times are: 111661
C	-0.905694	0.635523	-0.249459
C	0.18675	0.569313	-1.06344
C	1.10116	-0.318856	-0.41913
C	0.486775	-0.716989	0.731694
O	-0.739671	-0.143843	0.851466
H	-1.85236	1.19304	-0.340256
H	0.333905	1.09335	-2.02147
H	2.09825	-0.620369	-0.778286
H	0.812413	-1.39528	1.53739
C	5.93252	-0.393744	-1.08443
C	6.76879	-0.44277	0.0107344
N	6.17773	0.102265	1.10165
C	4.97934	0.48795	0.684843
N	4.7834	0.210907	-0.626052
H	6.06925	-0.734961	-2.1229
H	7.78805	-0.86165	0.0332777
H	4.20608	0.978213	1.29798
H	3.92052	0.417376	-1.18647
