18
  This energy is -0.8992 and Call times are: 89792
C	-1.10474	-0.187475	-0.175514
C	-0.518948	-0.361965	1.04382
C	0.85928	-0.0316636	0.866327
C	0.994039	0.315511	-0.445802
O	-0.195459	0.226069	-1.09704
H	-2.14563	-0.322362	-0.512569
H	-1.00829	-0.690332	1.97485
H	1.65099	-0.0530186	1.63238
H	1.87082	0.640206	-1.02982
C	6.64356	-0.485867	-0.244969
C	5.40178	-0.971682	-0.595839
N	4.41463	-0.157307	-0.149919
C	5.04163	0.829968	0.475209
N	6.38679	0.677524	0.445523
H	7.65796	-0.872796	-0.431556
H	5.20044	-1.89522	-1.16275
H	4.56418	1.68979	0.972191
H	7.09853	1.32265	0.86801
