18
  This energy is -1.2379 and Call times are: 20982
C	0.643909	-0.220142	-0.907369
C	1.16076	-0.136289	0.35208
C	0.0553167	0.149925	1.2101
C	-1.03946	0.215707	0.399237
O	-0.698414	-0.00783117	-0.897193
H	1.11977	-0.422549	-1.88094
H	2.21472	-0.263249	0.64728
H	0.0817805	0.289	2.30283
H	-2.10171	0.411539	0.61952
C	4.66781	0.962405	-0.590354
C	4.8937	0.86047	0.766011
N	5.26442	-0.397781	1.10642
C	5.2685	-1.07386	-0.03442
N	4.91574	-0.297935	-1.0866
H	4.35849	1.81422	-1.21667
H	4.79583	1.67228	1.50509
H	5.52198	-2.1393	-0.15612
H	4.84465	-0.599059	-2.08936
