18
  This energy is -0.4764 and Call times are: 65584
C	-0.948737	-0.103837	0.612795
C	0.0705263	-1.00724	0.685841
C	1.07243	-0.540311	-0.218751
C	0.576967	0.60721	-0.764725
O	-0.656421	0.88879	-0.268258
H	-1.92133	-0.0555656	1.1295
H	0.112626	-1.91171	1.31374
H	2.04579	-1.01077	-0.431664
H	0.998423	1.30517	-1.50667
C	6.49831	-1.09534	0.419121
C	5.45138	-0.581702	-0.316575
N	5.66846	0.717764	-0.634026
C	6.84559	1.00917	-0.0973089
N	7.38648	-0.0510128	0.548478
H	6.66849	-2.09671	0.845543
H	4.54327	-1.12547	-0.624003
H	7.35783	1.98353	-0.147077
H	8.30703	-0.07323	1.05181
