18
  This energy is -0.5886 and Call times are: 114042
C	-0.742201	0.524139	-0.678835
C	-0.713161	-0.832154	-0.53741
C	0.341092	-1.10645	0.386401
C	0.863224	0.106433	0.727953
O	0.213687	1.11338	0.0867275
H	-1.38594	1.18237	-1.28512
H	-1.3684	-1.56586	-1.03383
H	0.665769	-2.09511	0.748656
H	1.68638	0.383002	1.40706
C	6.92175	-0.315488	-0.165003
C	6.39569	0.954856	-0.268107
N	5.0649	0.954883	-0.0121752
C	4.76651	-0.310631	0.24871
N	5.85228	-1.11586	0.16938
H	7.94728	-0.693962	-0.30137
H	6.95254	1.87138	-0.522579
H	3.76868	-0.702525	0.503629
H	5.87507	-2.1524	0.331676
