18
  This energy is -1.0671 and Call times are: 149949
C	-0.0768486	-1.04737	-0.428383
C	-1.17596	-0.315223	-0.0873782
C	-0.678846	0.929207	0.406978
C	0.680164	0.847659	0.324427
O	1.06525	-0.352623	-0.183553
H	0.0245028	-2.06115	-0.849363
H	-2.23095	-0.62082	-0.175153
H	-1.27177	1.7803	0.778704
H	1.4732	1.56538	0.591295
C	5.20453	0.997098	0.159466
C	4.69064	0.175136	1.14
N	4.05028	-0.889613	0.598929
C	4.16646	-0.728802	-0.712279
N	4.8542	0.394127	-1.02792
H	5.77569	1.93709	0.220583
H	4.77046	0.331295	2.22816
H	3.76676	-1.40342	-1.48647
H	5.07793	0.739612	-1.99324
