18
  This energy is -0.7753 and Call times are: 159147
C	-1.09908	0.240107	0.144133
C	-0.108075	1.09323	0.532029
C	1.1194	0.448558	0.188769
C	0.770125	-0.741605	-0.378587
O	-0.580822	-0.885479	-0.413969
H	-2.19686	0.31688	0.209155
H	-0.229281	2.07774	1.01176
H	2.13912	0.833853	0.349438
H	1.38025	-1.56183	-0.791179
C	7.04082	-0.254565	0.137155
C	6.06234	-0.290892	1.10793
N	4.8568	0.0630304	0.600072
C	5.08652	0.317952	-0.680891
N	6.38826	0.140899	-1.00912
H	8.11936	-0.474798	0.179497
H	6.20464	-0.566135	2.16568
H	4.33746	0.637693	-1.42312
H	6.81845	0.278636	-1.95634
