18
  This energy is -0.6258 and Call times are: 162021
C	-0.058186	-0.496026	1.01832
C	1.09247	0.0595483	0.541148
C	0.770882	0.575388	-0.751371
C	-0.547909	0.289499	-0.94994
O	-1.07016	-0.364656	0.120735
H	-0.28371	-1.00798	1.96821
H	2.06969	0.101869	1.04846
H	1.44918	1.09718	-1.44545
H	-1.2209	0.495285	-1.79846
C	7.15622	-0.369238	0.57828
C	7.08015	0.685413	-0.306631
N	5.82158	0.829533	-0.788034
C	5.11954	-0.132054	-0.203993
N	5.87924	-0.882026	0.629061
H	8.00053	-0.777524	1.15619
H	7.91085	1.34493	-0.606354
H	4.04584	-0.331791	-0.350651
H	5.55691	-1.69855	1.20408
