18
  This energy is -1.241 and Call times are: 75063
C	-0.365589	-0.987525	0.421354
C	-1.22031	-0.0198998	-0.0185712
C	-0.395104	1.05581	-0.468025
C	0.891035	0.650574	-0.263078
O	0.927762	-0.594943	0.279461
H	-0.550207	-1.98566	0.851358
H	-2.32142	-0.059653	-0.0258473
H	-0.729204	2.01592	-0.893065
H	1.85461	1.14919	-0.458445
C	4.70027	0.990994	0.602423
C	4.44405	-0.25842	1.12631
N	4.26057	-1.17244	0.142738
C	4.40243	-0.492648	-0.987031
N	4.66857	0.816017	-0.763068
H	4.89639	1.95993	1.08847
H	4.38829	-0.516722	2.19636
H	4.32154	-0.903991	-2.00609
H	4.8216	1.55632	-1.49094
