18
  This energy is -1.4117 and Call times are: 24381
C	-1.08112	0.00783955	-0.34282
C	-0.297895	1.12415	-0.370705
C	0.976956	0.719958	0.130789
C	0.860238	-0.607675	0.420858
O	-0.389998	-1.05911	0.137788
H	-2.13175	-0.155577	-0.633866
H	-0.588721	2.13121	-0.710349
H	1.8711	1.35131	0.25728
H	1.58343	-1.33349	0.827592
C	5.03004	0.658211	-0.966924
C	5.45716	0.966214	0.307376
N	5.14014	-0.0202805	1.18078
C	4.5187	-0.936792	0.451092
N	4.42718	-0.574337	-0.850384
H	5.10975	1.21048	-1.91676
H	5.9884	1.88257	0.612212
H	4.11056	-1.8918	0.819349
H	3.98184	-1.12695	-1.6234
