18
  This energy is -0.7985 and Call times are: 34471
C	-0.549205	0.991321	-0.0453514
C	0.282817	0.571024	-1.04107
C	0.777615	-0.702795	-0.625526
C	0.204277	-0.94846	0.587448
O	-0.609027	0.0756783	0.957161
H	-1.14911	1.90929	0.0673699
H	0.523935	1.10449	-1.97455
H	1.47864	-1.35333	-1.17275
H	0.292837	-1.80289	1.27836
C	6.59403	-0.621422	0.104054
C	6.46797	0.662706	-0.382019
N	5.17529	1.06892	-0.359658
C	4.50198	0.0407083	0.138393
N	5.31266	-1.00289	0.433853
H	7.4755	-1.26918	0.234265
H	7.28658	1.30336	-0.74845
H	3.41398	-0.00134162	0.307847
H	5.02072	-1.92661	0.837296
