18
  This energy is -1.0573 and Call times are: 180691
C	-0.247849	-0.564471	-0.952021
C	-0.677307	0.71019	-0.725791
C	-0.170666	1.07107	0.559976
C	0.52367	-0.0149207	1.00596
O	0.487008	-1.02301	0.095231
H	-0.395874	-1.245	-1.80655
H	-1.28946	1.33376	-1.39701
H	-0.311899	2.03007	1.08387
H	1.08059	-0.19332	1.94044
C	5.84739	0.112387	0.236574
C	4.94921	-0.719258	0.871231
N	3.70808	-0.592858	0.341957
C	3.83581	0.313755	-0.617398
N	5.10676	0.769443	-0.720471
H	6.92523	0.277629	0.393033
H	5.17449	-1.40822	1.70155
H	3.03094	0.680519	-1.2746
H	5.46056	1.48663	-1.39997
