18
  This energy is -2.3751 and Call times are: 105402
C	0.337716	-0.976512	0.467731
C	0.38853	-0.754724	-0.877111
C	-0.113715	0.567732	-1.07454
C	-0.427106	1.03733	0.167084
O	-0.157832	0.107393	1.12087
H	0.62087	-1.85146	1.07563
H	0.744027	-1.4524	-1.65233
H	-0.225051	1.09927	-2.03327
H	-0.842776	2.00245	0.500277
C	4.3712	-0.583267	-1.01405
C	5.44608	0.193694	-0.637093
N	5.26062	0.717788	0.598802
C	4.07518	0.267673	0.987082
N	3.49871	-0.52109	0.0494683
H	4.17205	-1.15689	-1.9332
H	6.35211	0.385491	-1.23474
H	3.58188	0.484852	1.94819
H	2.565	-0.994984	0.119358
