18
  This energy is -1.0812 and Call times are: 185818
C	0.244419	0.632711	-0.909031
C	0.928601	-0.508129	-0.607778
C	0.337213	-1.01399	0.589923
C	-0.656151	-0.137611	0.914838
O	-0.726982	0.87418	0.010254
H	0.35066	1.35162	-1.73797
H	1.76576	-0.949198	-1.17234
H	0.624677	-1.92524	1.13862
H	-1.37277	-0.122553	1.75238
C	4.31451	0.131318	0.435383
C	5.49148	0.0711115	1.15111
N	6.55654	-0.0851362	0.32786
C	6.04226	-0.121723	-0.893944
N	4.69413	0.00476915	-0.882213
H	3.26855	0.251259	0.759611
H	5.59123	0.137615	2.24677
H	6.60763	-0.239358	-1.83243
H	4.05908	0.00617337	-1.71765
