18
  This energy is -0.7774 and Call times are: 6945
C	-0.249278	-0.410276	-1.02759
C	-1.20903	0.0312213	-0.164836
C	-0.513667	0.464233	1.00525
C	0.80962	0.249119	0.754226
O	0.989376	-0.284549	-0.482665
H	-0.317698	-0.830977	-2.04424
H	-2.29746	0.0500739	-0.335295
H	-0.955768	0.885567	1.92237
H	1.70872	0.430911	1.36563
C	5.41646	0.989582	0.570461
C	6.49813	0.795414	-0.262258
N	6.51818	-0.468574	-0.750565
C	5.45298	-1.05632	-0.222785
N	4.75603	-0.218684	0.581089
H	5.08112	1.87262	1.13733
H	7.26445	1.54471	-0.519467
H	5.13674	-2.0983	-0.391564
H	3.87955	-0.446303	1.11141
