18
  This energy is -1.3093 and Call times are: 110922
C	0.412499	-0.219039	1.03357
C	-0.186414	-1.17609	0.268239
C	-0.567203	-0.525049	-0.944718
C	-0.167369	0.77237	-0.813531
O	0.432817	0.976997	0.388515
H	0.859111	-0.261822	2.04053
H	-0.344221	-2.23435	0.531446
H	-1.07895	-0.978172	-1.80895
H	-0.250586	1.63544	-1.49429
C	4.96642	1.11075	0.130615
C	3.88774	0.516862	0.751016
N	3.75542	-0.77654	0.368769
C	4.74823	-0.984251	-0.485519
N	5.50676	0.123375	-0.662673
H	5.37416	2.13207	0.195336
H	3.2026	0.998462	1.46759
H	4.96566	-1.92856	-1.01015
H	6.3465	0.212927	-1.28564
