18
  This energy is -0.9785 and Call times are: 145107
C	0.635118	-0.563088	-0.752302
C	1.16573	0.341472	0.119819
C	0.0680552	0.830647	0.891786
C	-1.03643	0.181832	0.423256
O	-0.708588	-0.673171	-0.580985
H	1.1013	-1.18601	-1.53326
H	2.22395	0.634816	0.210432
H	0.105996	1.57868	1.69994
H	-2.09755	0.239553	0.716415
C	5.54029	1.05398	-0.465282
C	5.84968	-0.177668	-1.00238
N	5.42388	-1.18218	-0.198544
C	4.8525	-0.576017	0.833304
N	4.8971	0.772541	0.719323
H	5.72611	2.0767	-0.830051
H	6.37252	-0.359474	-1.9555
H	4.38584	-1.07173	1.69975
H	4.5146	1.4707	1.40308
