18
  This energy is -0.7431 and Call times are: 10797
C	0.398643	-0.521191	-0.925119
C	0.503788	0.826535	-0.743589
C	-0.104964	1.09962	0.519329
C	-0.528369	-0.105332	0.998064
O	-0.229053	-1.10623	0.128798
H	0.725995	-1.17558	-1.74966
H	0.963872	1.55527	-1.43015
H	-0.210711	2.08219	1.00664
H	-1.04804	-0.379743	1.93075
C	5.51343	0.862971	-0.800121
C	4.41517	0.146134	-0.374533
N	4.76335	-0.773572	0.557897
C	6.07262	-0.62785	0.710185
N	6.57193	0.346451	-0.0866981
H	5.61331	1.67695	-1.53564
H	3.3778	0.276082	-0.723569
H	6.71497	-1.20846	1.39174
H	7.57439	0.650458	-0.149172
