18
  This energy is -1.0252 and Call times are: 10454
C	0.980986	0.456308	-0.340368
C	0.661933	0.309797	0.977629
C	-0.632702	-0.293072	1.00184
C	-0.990495	-0.461748	-0.303496
O	-0.0167884	-0.00960606	-1.13685
H	1.87462	0.871692	-0.834464
H	1.2766	0.59741	1.84571
H	-1.22139	-0.565822	1.89243
H	-1.89822	-0.885197	-0.763903
C	4.59829	0.880353	0.343031
C	5.42888	0.124472	1.14297
N	6.09413	-0.805554	0.415641
C	5.67782	-0.627314	-0.83077
N	4.77527	0.377568	-0.926643
H	3.91653	1.71271	0.579549
H	5.56006	0.233513	2.23189
H	6.00151	-1.20487	-1.71161
H	4.30072	0.710281	-1.8015
