18
  This energy is -0.8595 and Call times are: 123335
C	0.507754	1.00587	0.129698
C	-0.253405	0.440085	1.10995
C	-0.713698	-0.803381	0.57888
C	-0.193184	-0.887696	-0.679026
O	0.555427	0.208648	-0.969931
H	1.06115	1.95854	0.0919872
H	-0.4691	0.856597	2.10699
H	-1.35723	-1.54266	1.08229
H	-0.28024	-1.66519	-1.45567
C	6.25104	-0.0812902	0.231506
C	5.33466	-1.11145	0.219283
N	4.09469	-0.658806	-0.0874891
C	4.24128	0.647204	-0.264905
N	5.52311	1.04429	-0.0837328
H	7.33355	-0.069897	0.435422
H	5.54598	-2.17321	0.426321
H	3.44305	1.35962	-0.528565
H	5.89212	2.02311	-0.167455
