18
  This energy is -1.1784 and Call times are: 172844
C	0.159099	-0.839288	0.746113
C	-0.429418	-1.04259	-0.467431
C	-0.450437	0.232692	-1.11034
C	0.127092	1.10272	-0.232911
O	0.505318	0.465141	0.906143
H	0.385855	-1.53124	1.57378
H	-0.810505	-1.99505	-0.869529
H	-0.851061	0.465595	-2.11001
H	0.324602	2.18521	-0.29978
C	4.94064	-0.728042	0.892827
C	3.78429	-0.692533	0.142668
N	3.84675	0.273184	-0.806015
C	5.03732	0.834644	-0.645006
N	5.73497	0.266198	0.366797
H	5.24436	-1.36908	1.73566
H	2.90604	-1.34643	0.268964
H	5.44853	1.66556	-1.24059
H	6.69758	0.532176	0.689142
