18
  This energy is -1.6271 and Call times are: 182575
C	-0.236631	0.887774	0.66503
C	0.350601	-0.246792	1.14283
C	0.483269	-1.12067	0.0208443
C	-0.0346031	-0.442977	-1.04354
O	-0.478908	0.785362	-0.668321
H	-0.529974	1.82543	1.16503
H	0.659371	-0.448124	2.1812
H	0.915352	-2.13427	0.0163414
H	-0.143353	-0.721239	-2.10467
C	3.92038	-0.840751	0.730837
C	4.1266	0.488339	1.03438
N	4.56756	1.17406	-0.0481444
C	4.63464	0.273795	-1.01956
N	4.25465	-0.956309	-0.599991
H	3.57107	-1.68438	1.34713
H	3.96512	0.964767	2.01509
H	4.95543	0.461534	-2.0569
H	4.22106	-1.83135	-1.17829
