18
  This energy is -0.8527 and Call times are: 80348
C	1.07256	-0.364166	0.0583676
C	0.756382	0.947484	-0.141594
C	-0.670597	1.00806	-0.154917
C	-1.10046	-0.271916	0.0380786
O	-0.0492682	-1.12311	0.170292
H	2.04462	-0.877793	0.139126
H	1.45767	1.78804	-0.26712
H	-1.29567	1.90492	-0.292829
H	-2.11389	-0.701256	0.100298
C	5.06223	0.808276	0.173001
C	4.99526	-0.287453	-0.661289
N	6.14248	-1.00738	-0.615394
C	6.9182	-0.360734	0.244099
N	6.31211	0.74079	0.746974
H	4.33323	1.60471	0.391587
H	4.13972	-0.571443	-1.29552
H	7.93896	-0.650289	0.541498
H	6.71714	1.41497	1.44173
