18
  This energy is -0.7691 and Call times are: 110858
C	0.689753	-0.761327	-0.480648
C	0.041659	0.196335	-1.204
C	-0.71946	0.951134	-0.260018
C	-0.469285	0.388089	0.956849
O	0.389274	-0.659014	0.840812
H	1.38268	-1.5631	-0.784399
H	0.0942885	0.35528	-2.29306
H	-1.37428	1.81166	-0.471663
H	-0.835377	0.636547	1.96655
C	4.67109	0.821641	-0.56078
C	4.53251	-0.545676	-0.672065
N	5.42316	-1.19299	0.118013
C	6.11167	-0.230909	0.717162
N	5.69601	1.00171	0.341055
H	4.13092	1.65158	-1.04342
H	3.80581	-1.07671	-1.30828
H	6.93087	-0.373373	1.44025
H	6.08112	1.91968	0.673166
