18
  This energy is -1.2339 and Call times are: 66225
C	0.59721	-0.547992	0.793376
C	-0.643507	-0.956593	0.400896
C	-1.06329	-0.0268232	-0.598819
C	-0.042039	0.867868	-0.728997
O	0.980247	0.564795	0.113671
H	1.30076	-0.957731	1.5366
H	-1.20662	-1.82556	0.777588
H	-2.01659	-0.0315757	-1.15135
H	0.0774279	1.75181	-1.37678
C	4.95185	-0.620368	0.967888
C	5.51189	-0.774231	-0.282643
N	4.98698	0.110055	-1.16527
C	4.10467	0.809843	-0.464957
N	4.04642	0.407466	0.826667
H	5.12768	-1.15183	1.91666
H	6.28529	-1.50746	-0.563841
H	3.4743	1.62819	-0.848585
H	3.42914	0.803091	1.57747
