18
  This energy is -1.3261 and Call times are: 78146
C	-0.574625	-0.965354	0.155882
C	-0.388289	-0.417539	-1.07925
C	0.370254	0.774149	-0.86804
C	0.580491	0.849359	0.477514
O	0.0103577	-0.204808	1.11837
H	-1.098	-1.88039	0.478436
H	-0.748831	-0.812957	-2.04245
H	0.714772	1.4864	-1.63492
H	1.11256	1.59244	1.09395
C	3.80992	-0.469219	0.429725
C	4.24682	0.82899	0.587577
N	5.43054	1.02614	-0.0420578
C	5.72686	-0.145301	-0.58844
N	4.78075	-1.07963	-0.332551
H	2.90697	-0.984688	0.793752
H	3.72912	1.62691	1.1445
H	6.62399	-0.373946	-1.18603
H	4.7858	-2.0787	-0.653656
