18
  This energy is -0.4707 and Call times are: 39723
C	1.07059	0.135571	0.349086
C	0.639149	-1.00764	-0.256959
C	-0.744433	-0.79966	-0.54429
C	-1.03634	0.452292	-0.0884634
O	0.0604667	1.03797	0.460173
H	2.05853	0.426618	0.742164
H	1.23539	-1.90716	-0.479359
H	-1.43422	-1.50585	-1.03376
H	-1.97352	1.03273	-0.0951776
C	5.52745	0.0987571	-0.0214084
C	6.40947	0.86782	0.707786
N	7.68978	0.47878	0.493388
C	7.60236	-0.527805	-0.365546
N	6.3195	-0.795349	-0.706548
H	4.42883	0.123623	-0.0986786
H	6.14496	1.69644	1.38475
H	8.44636	-1.10422	-0.777416
H	5.99084	-1.54169	-1.36702
