18
  This energy is -0.92 and Call times are: 64833
C	0.523665	0.616779	0.794833
C	-0.329547	-0.401264	1.10466
C	-0.780256	-0.927496	-0.144363
C	-0.162678	-0.184572	-1.10719
O	0.637382	0.763132	-0.551518
H	1.1048	1.30324	1.43225
H	-0.613087	-0.746969	2.11173
H	-1.48273	-1.76233	-0.298252
H	-0.208662	-0.230307	-2.20766
C	4.12872	-0.190626	0.636683
C	5.2189	-1.02668	0.51987
N	6.15955	-0.49195	-0.296067
C	5.65484	0.671417	-0.683965
N	4.43205	0.899063	-0.148656
H	3.18984	-0.290648	1.20416
H	5.34359	-2.00615	1.00972
H	6.13851	1.39551	-1.35923
H	3.8298	1.74457	-0.302548
