18
  This energy is -1.1029 and Call times are: 19765
C	-0.481948	-0.926296	0.442834
C	0.433667	-0.181513	1.12644
C	0.802579	0.884823	0.250687
C	0.0798337	0.69753	-0.890774
O	-0.710001	-0.403924	-0.790913
H	-1.03666	-1.83772	0.720072
H	0.811391	-0.364661	2.14521
H	1.5232	1.69283	0.45544
H	0.0384259	1.26981	-1.83207
C	5.61111	-0.809799	0.748536
C	4.30283	-0.395755	0.613957
N	4.18706	0.55352	-0.346244
C	5.41883	0.727717	-0.8056
N	6.31354	-0.0713713	-0.177476
H	6.07645	-1.55288	1.41549
H	3.44038	-0.764971	1.19249
H	5.72153	1.42752	-1.60114
H	7.34568	-0.119283	-0.360932
