18
  This energy is -1.8418 and Call times are: 188232
C	0.751294	-0.116091	0.841714
C	0.635659	-1.02885	-0.165198
C	-0.401152	-0.541052	-1.01795
C	-0.827572	0.626734	-0.456869
O	-0.134682	0.901626	0.679507
H	1.41606	-0.0769488	1.72023
H	1.22169	-1.95295	-0.29447
H	-0.778833	-1.01174	-1.93985
H	-1.60542	1.3446	-0.764872
C	3.59473	0.604314	-0.808424
C	4.23878	-0.601631	-0.98743
N	4.83673	-1.01094	0.157746
C	4.56467	-0.0625326	1.04382
N	3.8184	0.933256	0.509891
H	3.01249	1.2308	-1.50272
H	4.28272	-1.1837	-1.92237
H	4.88724	-0.0473038	2.09736
H	3.47552	1.79224	1.00571
