18
  This energy is -0.6002 and Call times are: 65648
C	0.266174	1.10048	0.0669938
C	-0.985096	0.670502	-0.264388
C	-0.926387	-0.75647	-0.243823
C	0.355576	-1.07252	0.0983122
O	1.0978	0.0493727	0.291876
H	0.68619	2.11396	0.175216
H	-1.86151	1.29549	-0.499708
H	-1.74823	-1.45784	-0.460026
H	0.85728	-2.04454	0.23515
C	6.75683	-0.0908873	-0.801666
C	6.88279	-0.233576	0.563954
N	5.6903	-0.0639615	1.18501
C	4.82784	0.183012	0.208396
N	5.42214	0.17757	-1.00831
H	7.49782	-0.15911	-1.61396
H	7.81275	-0.455872	1.11224
H	3.74942	0.374896	0.328496
H	4.95515	0.345801	-1.93291
