18
  This energy is -1.4148 and Call times are: 158667
C	-0.929251	0.0724327	-0.646256
C	-0.266213	-1.10317	-0.449488
C	0.833136	-0.793229	0.408117
C	0.744847	0.54441	0.659713
O	-0.325595	1.08914	0.0237601
H	-1.83075	0.31403	-1.23292
H	-0.525289	-2.08964	-0.866435
H	1.5959	-1.49162	0.788307
H	1.37298	1.21726	1.26632
C	5.06942	0.83077	0.688881
C	4.59256	0.992334	-0.594726
N	4.12126	-0.177031	-1.09169
C	4.30504	-1.06068	-0.120086
N	4.87374	-0.502019	0.974482
H	5.51917	1.54605	1.39573
H	4.58014	1.93171	-1.17115
H	4.0413	-2.12992	-0.15731
H	5.11889	-0.990998	1.87006
