18
  This energy is -2.212 and Call times are: 187355
C	0.371516	0.258223	1.04005
C	0.796262	-0.849319	0.366759
C	0.113914	-0.829801	-0.887887
C	-0.667569	0.287946	-0.870539
O	-0.522732	0.964351	0.299294
H	0.626783	0.649481	2.03855
H	1.5177	-1.6043	0.718354
H	0.201118	-1.56664	-1.70248
H	-1.36172	0.706362	-1.61775
C	3.73445	-0.215976	-1.09764
C	4.65478	-0.943973	-0.373653
N	4.83873	-0.411233	0.858767
C	4.03558	0.64325	0.899183
N	3.34823	0.803528	-0.256434
H	3.34018	-0.34689	-2.11791
H	5.18935	-1.84407	-0.718478
H	3.91201	1.33227	1.75019
H	2.65347	1.56025	-0.470768
