18
  This energy is -0.901 and Call times are: 17838
C	-0.214556	0.837524	-0.734112
C	1.05266	0.415985	-0.456898
C	0.914306	-0.636817	0.498394
C	-0.425239	-0.765693	0.720615
O	-1.12967	0.126828	-0.023832
H	-0.592541	1.6232	-1.40871
H	1.99073	0.807173	-0.882433
H	1.72379	-1.2242	0.960797
H	-0.995727	-1.44489	1.37521
C	6.77617	-0.402144	0.255384
C	5.57328	-0.988441	0.587713
N	4.52937	-0.252979	0.133991
C	5.08255	0.78563	-0.477489
N	6.43516	0.741487	-0.43164
H	7.81605	-0.707619	0.452588
H	5.43993	-1.92895	1.14674
H	4.54363	1.60766	-0.975552
H	7.09783	1.44451	-0.841382
