18
  This energy is -0.9664 and Call times are: 169864
C	-0.253913	0.812487	0.749529
C	-1.20891	0.167389	0.0200098
C	-0.508578	-0.770811	-0.798178
C	0.812562	-0.616211	-0.496414
O	0.986388	0.346557	0.446917
H	-0.327048	1.61068	1.50636
H	-2.29735	0.335358	0.0545761
H	-0.946055	-1.47489	-1.52411
H	1.71387	-1.12343	-0.87801
C	6.26411	0.49189	-0.462193
C	5.76519	-0.764623	-0.7331
N	4.63701	-1.00612	-0.0221719
C	4.43682	0.0963814	0.687077
N	5.39084	1.02935	0.456892
H	7.14927	1.02389	-0.845611
H	6.19904	-1.50126	-1.42879
H	3.60725	0.273506	1.39041
H	5.45338	1.98085	0.895072
