18
  This energy is -0.4624 and Call times are: 73973
C	-1.08288	0.316067	-0.11782
C	-0.713159	-0.755659	0.640524
C	0.709773	-0.83171	0.542558
C	1.08398	0.200257	-0.267002
O	0.00194499	0.911657	-0.679467
H	-2.072	0.751691	-0.334907
H	-1.37597	-1.42547	1.21161
H	1.36957	-1.57221	1.02259
H	2.07473	0.530065	-0.620399
C	7.60265	-0.37946	0.48558
C	7.4635	0.280228	-0.717164
N	6.16361	0.56977	-0.968117
C	5.49889	0.0915237	0.0749743
N	6.32194	-0.490308	0.979211
H	8.49273	-0.765018	1.00773
H	8.27775	0.552456	-1.40835
H	4.40863	0.140411	0.227267
H	6.03847	-0.940149	1.88395
