18
  This energy is -1.3428 and Call times are: 169641
C	-0.342336	-0.417923	-0.99727
C	0.600011	-1.0377	-0.230311
C	0.759279	-0.220145	0.930011
C	-0.0998013	0.827065	0.769678
O	-0.780667	0.722408	-0.401851
H	-0.780865	-0.683432	-1.9732
H	1.12983	-1.97643	-0.458742
H	1.43713	-0.398957	1.78009
H	-0.316724	1.69911	1.40822
C	4.27371	-0.463808	1.03126
C	4.22753	0.866164	0.670453
N	4.68105	1.04546	-0.593938
C	5.00733	-0.168663	-1.01591
N	4.78022	-1.11304	-0.0724269
H	3.99139	-0.977082	1.96421
H	3.8751	1.69957	1.2998
H	5.41694	-0.422674	-2.00684
H	4.95641	-2.14347	-0.164195
