18
  This energy is -0.7097 and Call times are: 23194
C	0.736228	-0.813367	0.287754
C	-0.609067	-1.03163	0.233783
C	-1.19142	0.21174	-0.15992
C	-0.150583	1.08005	-0.31178
O	1.03405	0.470882	-0.0424213
H	1.57547	-1.48071	0.543845
H	-1.13825	-1.97371	0.449568
H	-2.26189	0.425375	-0.310079
H	-0.121626	2.14275	-0.603487
C	4.74925	-0.648442	-0.246363
C	5.96234	-0.676411	-0.901182
N	6.83443	0.203591	-0.352041
C	6.16492	0.775316	0.639677
N	4.90298	0.295562	0.744299
H	3.81851	-1.21461	-0.409786
H	6.22393	-1.31579	-1.76002
H	6.55092	1.55109	1.32042
H	4.17952	0.587155	1.44632
