18
  This energy is -1.159 and Call times are: 157483
C	-0.374355	-0.757948	-0.756157
C	0.933997	-0.689615	-0.376788
C	1.01035	0.373391	0.574161
C	-0.258084	0.860807	0.691957
O	-1.11668	0.181614	-0.113355
H	-0.896257	-1.42124	-1.46532
H	1.76224	-1.32412	-0.731061
H	1.90957	0.726945	1.10379
H	-0.673749	1.67658	1.30595
C	5.78456	0.862825	0.546735
C	5.5682	0.740058	-0.809459
N	4.85545	-0.377539	-1.09136
C	4.63048	-0.945937	0.0854743
N	5.17056	-0.236321	1.10447
H	6.31433	1.62902	1.13481
H	5.91362	1.43787	-1.58959
H	4.07588	-1.88233	0.258129
H	5.1294	-0.477488	2.12496
