18
  This energy is -1.4328 and Call times are: 60594
C	-0.152185	-0.020681	1.12375
C	-0.460432	1.06994	0.364862
C	-0.13366	0.71569	-0.979699
C	0.345426	-0.560131	-0.923761
O	0.341199	-1.02552	0.353113
H	-0.236284	-0.204747	2.2074
H	-0.876209	2.0278	0.716616
H	-0.245705	1.34428	-1.87771
H	0.715997	-1.2371	-1.71094
C	4.96216	0.710555	-0.547104
C	4.6412	-0.584256	-0.895808
N	3.72485	-1.10659	-0.0449279
C	3.47828	-0.139498	0.828318
N	4.19975	0.976512	0.568328
H	5.656	1.4373	-0.998712
H	5.0544	-1.15092	-1.74611
H	2.77847	-0.195378	1.67766
H	4.18176	1.87348	1.11273
