18
  This energy is -1.3233 and Call times are: 207508
C	0.119565	-0.137751	1.11943
C	0.0562267	1.09433	0.537753
C	-0.0929592	0.858187	-0.862997
C	-0.107617	-0.497345	-1.01364
O	0.0210959	-1.12137	0.186793
H	0.23221	-0.44422	2.17235
H	0.109244	2.07143	1.04427
H	-0.178609	1.6158	-1.65847
H	-0.202549	-1.13238	-1.90973
C	5.11988	0.92774	0.0785528
C	3.78543	0.884317	0.422811
N	3.2638	-0.3469	0.202547
C	4.27081	-1.06456	-0.276536
N	5.41154	-0.341006	-0.370226
H	5.85797	1.74447	0.119791
H	3.18968	1.71932	0.826177
H	4.22776	-2.12449	-0.57476
H	6.34107	-0.681616	-0.718398
