18
  This energy is -1.6075 and Call times are: 86057
C	0.738905	-0.75396	-0.414686
C	1.03401	0.0502904	0.646665
C	-0.129615	0.848527	0.867808
C	-1.03308	0.461601	-0.0779275
O	-0.519414	-0.516208	-0.869791
H	1.33039	-1.526	-0.933676
H	1.97656	0.0785919	1.21666
H	-0.268649	1.61878	1.64335
H	-2.06067	0.800229	-0.289219
C	4.75538	1.15861	0.199095
C	5.19721	0.153595	1.03328
N	4.97553	-1.06699	0.4878
C	4.39836	-0.82012	-0.680345
N	4.24363	0.506937	-0.900728
H	4.76848	2.25488	0.306692
H	5.67198	0.287329	2.01896
H	4.06879	-1.57411	-1.41323
H	3.81541	0.954193	-1.74799
