18
  This energy is -0.9084 and Call times are: 148003
C	0.0601608	-0.469797	1.03057
C	-0.482547	0.763821	0.82074
C	-0.377792	1.00337	-0.583455
C	0.219682	-0.105017	-1.10775
O	0.494109	-1.01493	-0.136278
H	0.194711	-1.06252	1.95026
H	-0.913417	1.43753	1.57874
H	-0.711292	1.89972	-1.13064
H	0.499989	-0.364436	-2.14186
C	5.6528	-0.258021	-0.0495691
C	6.54347	-0.632595	0.934075
N	7.78685	-0.161246	0.672645
C	7.668	0.503213	-0.468842
N	6.40053	0.474176	-0.94454
H	4.57572	-0.454148	-0.17194
H	6.31118	-1.23451	1.82772
H	8.47714	1.02968	-1.00021
H	6.05355	0.923772	-1.82699
