18
  This energy is -1.1764 and Call times are: 129824
C	-0.278378	1.08788	0.15946
C	-1.11015	0.0630901	0.503463
C	-0.418105	-1.13643	0.153671
C	0.775474	-0.738754	-0.373206
O	0.877707	0.616437	-0.377405
H	-0.391371	2.18116	0.244375
H	-2.11067	0.143757	0.957943
H	-0.775372	-2.1707	0.283022
H	1.62539	-1.31448	-0.774992
C	4.2074	-0.84412	0.720014
C	4.62221	0.421371	1.07723
N	5.01105	1.13282	-0.0086552
C	4.83812	0.311817	-1.03563
N	4.35537	-0.89252	-0.648179
H	3.82997	-1.6856	1.32251
H	4.6479	0.833808	2.09904
H	5.04911	0.541608	-2.09247
H	4.13566	-1.70781	-1.27131
