18
  This energy is -0.6843 and Call times are: 209437
C	0.60748	0.732492	0.617109
C	-0.738709	0.582787	0.777532
C	-1.13609	-0.415066	-0.164005
C	0.00233856	-0.787047	-0.816671
O	1.07674	-0.0963261	-0.35236
H	1.33596	1.38626	1.12422
H	-1.38686	1.12104	1.48765
H	-2.15362	-0.804307	-0.329037
H	0.177894	-1.52169	-1.61962
C	6.12723	-0.723104	0.0495061
C	5.27894	-0.537387	-1.0215
N	4.31678	0.371614	-0.730856
C	4.56722	0.748383	0.515719
N	5.64885	0.11679	1.03028
H	7.0081	-1.37187	0.178831
H	5.34392	-1.043	-1.99873
H	3.99016	1.48352	1.09951
H	6.04715	0.242883	1.99294
