18
  This energy is -0.5526 and Call times are: 182735
C	-0.909119	0.451724	0.505815
C	-1.00366	-0.582753	-0.378093
C	0.333491	-0.866476	-0.792396
C	1.12711	0.0196681	-0.125089
O	0.384891	0.83232	0.672235
H	-1.6778	0.99852	1.07625
H	-1.9228	-1.09468	-0.705511
H	0.65722	-1.64212	-1.50491
H	2.21894	0.171693	-0.131114
C	6.79558	-0.67055	0.672029
C	5.45978	-0.876867	0.399623
N	4.97122	0.0922889	-0.411893
C	6.00002	0.896785	-0.642054
N	7.12292	0.479677	-0.010622
H	7.51249	-1.24179	1.28298
H	4.83977	-1.70766	0.774098
H	5.98623	1.8053	-1.26546
H	8.06366	0.944024	-0.0362074
