18
  This energy is -1.772 and Call times are: 27354
C	0.0398542	0.714938	0.879589
C	0.623464	0.999412	-0.319931
C	0.360869	-0.1261	-1.15921
C	-0.360029	-0.999001	-0.398468
O	-0.565322	-0.50156	0.849498
H	-0.0147811	1.2874	1.8201
H	1.18277	1.91044	-0.586953
H	0.676097	-0.261229	-2.20633
H	-0.78004	-1.99258	-0.625732
C	4.26147	-0.203933	0.967357
C	5.52864	-0.675788	0.697574
N	5.96348	-0.244627	-0.511359
C	4.96986	0.491907	-0.989747
N	3.92083	0.547252	-0.135309
H	3.60007	-0.344841	1.83698
H	6.13691	-1.31961	1.35358
H	4.958	1.01335	-1.96041
H	3.01969	1.06395	-0.284415
