18
  This energy is -1.5352 and Call times are: 93102
C	0.580214	-0.816027	0.532778
C	0.690183	0.500024	0.873791
C	-0.180678	1.20712	-0.0103672
C	-0.745941	0.260743	-0.813625
O	-0.292619	-0.980446	-0.495881
H	1.06323	-1.71955	0.939716
H	1.32125	0.929763	1.66826
H	-0.35907	2.2941	-0.0377208
H	-1.47464	0.341076	-1.63691
C	4.03451	-0.853481	-0.66331
C	4.12479	-0.830805	0.712364
N	4.71971	0.307621	1.1443
C	4.99745	0.988603	0.0407805
N	4.6039	0.330655	-1.07538
H	3.61922	-1.60345	-1.35513
H	3.77132	-1.61548	1.40098
H	5.48822	1.97404	-0.00709226
H	4.71194	0.659852	-2.06594
