18
  This energy is -1.2701 and Call times are: 208196
C	0.47764	-1.00368	0.225591
C	0.479664	0.0242082	1.12215
C	-0.206086	1.10187	0.483007
C	-0.566627	0.637397	-0.747703
O	-0.157121	-0.64673	-0.921874
H	0.888758	-2.02491	0.28324
H	0.919896	0.0236027	2.13225
H	-0.403255	2.10295	0.899022
H	-1.10966	1.11563	-1.57936
C	5.38497	-0.544747	-0.687142
C	4.367	-1.13273	0.0333856
N	3.65244	-0.205229	0.715772
C	4.22493	0.953743	0.419704
N	5.27414	0.802106	-0.422774
H	6.15474	-0.975092	-1.34729
H	4.13534	-2.20958	0.073087
H	3.91607	1.9437	0.792286
H	5.88651	1.56515	-0.802275
