18
  This energy is -1.8781 and Call times are: 57366
C	0.631762	-0.941573	0.0267951
C	0.0486549	-0.421156	1.14462
C	-0.652167	0.74607	0.712703
C	-0.435457	0.835888	-0.630927
O	0.346609	-0.186605	-1.0667
H	1.26483	-1.83195	-0.120523
H	0.106264	-0.819284	2.17042
H	-1.24597	1.43287	1.33704
H	-0.777511	1.56959	-1.37921
C	4.26984	-1.01426	-0.368257
C	4.03118	-0.638443	0.936712
N	3.47989	0.598115	0.996048
C	3.37695	0.987939	-0.267306
N	3.83988	0.0506725	-1.12801
H	4.70085	-1.93351	-0.795765
H	4.24689	-1.23738	1.83648
H	2.96999	1.94997	-0.618181
H	3.86624	0.121693	-2.17468
