18
  This energy is -1.3601 and Call times are: 22087
C	-0.927564	0.652241	0.0246547
C	-0.483429	0.0569478	-1.11935
C	0.690557	-0.668957	-0.752009
C	0.860191	-0.453173	0.584043
O	-0.118958	0.351488	1.07476
H	-1.79424	1.30481	0.220281
H	-0.937022	0.12244	-2.12138
H	1.32817	-1.27819	-1.4126
H	1.62699	-0.810629	1.29079
C	4.72581	-1.06335	0.338167
C	5.80059	-0.785819	-0.479737
N	5.94465	0.549423	-0.661078
C	4.96297	1.09815	0.0416546
N	4.20027	0.167399	0.662604
H	4.31156	-2.01774	0.700221
H	6.47466	-1.52511	-0.942249
H	4.75698	2.17654	0.135904
H	3.3673	0.34876	1.27459
