18
  This energy is -0.7955 and Call times are: 130291
C	0.331353	0.791614	-0.741588
C	0.681096	-0.520576	-0.868905
C	0.082752	-1.19402	0.239508
C	-0.579811	-0.233907	0.946312
O	-0.438693	0.984725	0.361475
H	0.563458	1.67352	-1.36096
H	1.2985	-0.969265	-1.66363
H	0.143997	-2.26866	0.475044
H	-1.18024	-0.28903	1.86918
C	4.85779	0.898556	-0.163754
C	4.56691	-0.444996	-0.270512
N	5.66048	-1.20351	-0.0150391
C	6.62611	-0.333827	0.249203
N	6.19228	0.946596	0.172449
H	4.23052	1.79402	-0.298733
H	3.58756	-0.880637	-0.527298
H	7.66918	-0.580563	0.504851
H	6.76363	1.8112	0.337587
