18
  This energy is -0.9276 and Call times are: 138174
C	-0.196994	-0.11458	-1.11107
C	-1.11661	0.420409	-0.257558
C	-0.510363	0.396419	1.0355
C	0.726199	-0.151111	0.858022
O	0.9344	-0.46912	-0.44679
H	-0.226495	-0.294828	-2.19821
H	-2.1211	0.794414	-0.512919
H	-0.951357	0.748126	1.98204
H	1.54023	-0.364738	1.57004
C	5.64395	-0.0384244	-1.12486
C	4.35888	0.140158	-0.65812
N	4.32555	0.132205	0.696626
C	5.58515	-0.050617	1.06891
N	6.41854	-0.159317	0.00720129
H	6.04855	-0.0864351	-2.14835
H	3.45516	0.274601	-1.27462
H	5.95256	-0.112646	2.10593
H	7.45692	-0.307461	0.0401305
