18
  This energy is -0.9126 and Call times are: 212586
C	0.107977	-1.10036	0.252879
C	1.13981	-0.217281	0.378822
C	0.621734	1.05002	-0.0281945
C	-0.680956	0.829495	-0.366929
O	-1.01169	-0.478258	-0.201372
H	0.0436944	-2.1828	0.451505
H	2.16311	-0.436331	0.723739
H	1.16349	2.00892	-0.0615966
H	-1.46609	1.51038	-0.734627
C	6.18006	0.532625	0.702075
C	5.11329	1.11949	0.0549758
N	4.42159	0.208638	-0.671945
C	5.05684	-0.93893	-0.476551
N	6.12405	-0.795996	0.34456
H	6.94944	0.952434	1.36942
H	4.83033	2.18382	0.0995889
H	4.78296	-1.91403	-0.91061
H	6.78322	-1.55304	0.650544
