18
  This energy is -1.0533 and Call times are: 19348
C	0.0869638	0.165697	1.11865
C	-0.270513	1.16189	0.258312
C	-0.269402	0.573575	-1.04323
C	0.0886552	-0.730192	-0.863342
O	0.310084	-0.996711	0.450792
H	0.216365	0.156566	2.21338
H	-0.510874	2.20625	0.514517
H	-0.50873	1.0711	-1.99679
H	0.219602	-1.5579	-1.57958
C	4.2605	0.915547	-0.00164118
C	3.94459	-0.402879	0.249558
N	5.04287	-1.19259	0.168002
C	6.03635	-0.367211	-0.13265
N	5.61571	0.914919	-0.245769
H	3.6376	1.82388	-0.0232342
H	2.94387	-0.798444	0.488183
H	7.09124	-0.64889	-0.281245
H	6.20891	1.7495	-0.475644
