18
  This energy is -1.0645 and Call times are: 1626
C	-0.0480834	-1.00601	0.521559
C	0.276805	0.143379	1.18013
C	0.231403	1.18162	0.20028
C	-0.117222	0.57503	-0.970567
O	-0.291874	-0.760973	-0.792797
H	-0.139027	-2.04778	0.870425
H	0.523665	0.24946	2.24873
H	0.436063	2.25274	0.358113
H	-0.271337	0.977878	-1.98507
C	6.05323	0.0779524	0.221509
C	5.39054	0.550819	-0.891317
N	4.06304	0.288477	-0.81768
C	3.90279	-0.34473	0.33644
N	5.07331	-0.496153	1.00018
H	7.11732	0.108346	0.504965
H	5.8465	1.07658	-1.74603
H	2.94998	-0.719314	0.743956
H	5.20858	-0.962115	1.93069
