18
  This energy is -1.6463 and Call times are: 87018
C	-0.308588	0.400379	-1.01532
C	0.718185	0.940794	-0.298337
C	0.799332	0.176334	0.905463
C	-0.185016	-0.763748	0.817838
O	-0.87154	-0.641589	-0.348685
H	-0.730916	0.662874	-1.99918
H	1.35459	1.79233	-0.588097
H	1.51117	0.317313	1.73463
H	-0.494437	-1.56492	1.50894
C	4.20592	-0.659963	-0.683954
C	5.33596	-1.0716	-0.00963191
N	5.89111	-0.0481985	0.68388
C	5.10845	0.994366	0.440719
N	4.07833	0.676737	-0.37876
H	3.50683	-1.20545	-1.3376
H	5.76064	-2.0887	-0.011096
H	5.24378	2.01352	0.837256
H	3.32583	1.32519	-0.717161
