18
  This energy is -1.022 and Call times are: 185146
C	0.209227	1.10651	0.135094
C	-0.953433	0.526928	0.550636
C	-0.844242	-0.856031	0.210607
C	0.375504	-0.999467	-0.382704
O	1.03244	0.18901	-0.437197
H	0.566683	2.14799	0.188115
H	-1.80276	1.02346	1.04683
H	-1.59207	-1.64495	0.390744
H	0.88489	-1.88225	-0.802798
C	4.39352	1.09588	-0.137517
C	5.34854	0.674488	0.763314
N	5.57589	-0.656463	0.647586
C	4.76499	-1.05923	-0.321353
N	4.03111	-0.0397107	-0.826928
H	3.96057	2.09032	-0.330337
H	5.87762	1.30697	1.49468
H	4.66855	-2.08949	-0.700158
H	3.32129	-0.102377	-1.59731
