18
  This energy is -0.889 and Call times are: 51151
C	-0.993682	0.153818	0.524726
C	-0.778555	0.549565	-0.762705
C	0.570871	0.189651	-1.06209
C	1.06124	-0.394263	0.0688256
O	0.119277	-0.424546	1.04801
H	-1.88241	0.225985	1.17296
H	-1.49795	1.04521	-1.43419
H	1.10575	0.350763	-2.01184
H	2.0501	-0.82288	0.300505
C	5.55927	0.948496	-0.596968
C	5.18145	0.898854	0.728147
N	4.82503	-0.358158	1.08786
C	4.98114	-1.08557	-0.00992371
N	5.42212	-0.343487	-1.05321
H	5.90452	1.78392	-1.22658
H	5.15965	1.74752	1.4311
H	4.78699	-2.16606	-0.105157
H	5.62154	-0.686901	-2.02458
