18
  This energy is -1.4667 and Call times are: 179458
C	-0.14622	-0.676983	0.898173
C	-0.838161	0.487895	0.74117
C	-0.384879	1.04879	-0.491735
C	0.54404	0.177146	-0.979306
O	0.702416	-0.882547	-0.143255
H	-0.166693	-1.43769	1.69577
H	-1.59213	0.909859	1.42496
H	-0.717525	1.99209	-0.953917
H	1.15426	0.196863	-1.89718
C	4.76749	0.746678	-0.907199
C	5.60587	0.695124	0.186241
N	5.2357	-0.290265	1.03976
C	4.17172	-0.8479	0.477953
N	3.84958	-0.258162	-0.697641
H	4.75939	1.40534	-1.79017
H	6.47122	1.35129	0.374581
H	3.59037	-1.69102	0.884671
H	3.05244	-0.517058	-1.32915
