18
  This energy is -1.4314 and Call times are: 31925
C	0.791071	-0.390196	0.71299
C	-0.32512	-1.10754	0.396909
C	-1.06678	-0.295405	-0.514408
C	-0.338328	0.846533	-0.674771
O	0.799393	0.80574	0.0674819
H	1.64263	-0.616949	1.37532
H	-0.598755	-2.10821	0.768245
H	-2.02977	-0.541193	-0.990135
H	-0.518711	1.74979	-1.28045
C	4.72571	-0.801216	0.719859
C	6.06191	-0.4818	0.602872
N	6.2532	0.487503	-0.32469
C	5.04029	0.768348	-0.7814
N	4.08519	0.0179181	-0.182878
H	4.20275	-1.52918	1.36027
H	6.89137	-0.933383	1.17114
H	4.79481	1.5148	-1.55392
H	3.05333	0.053337	-0.37072
