18
  This energy is -1.3613 and Call times are: 49360
C	-1.0985	0.112928	-0.25876
C	-0.363505	-0.967756	-0.648999
C	0.953249	-0.749307	-0.140514
C	0.906669	0.445583	0.515566
O	-0.338701	0.986143	0.453433
H	-2.15675	0.374938	-0.422161
H	-0.713482	-1.83204	-1.23604
H	1.82718	-1.41055	-0.254922
H	1.68055	1.01154	1.05967
C	4.29254	0.499783	-0.695208
C	5.18891	1.14624	0.129266
N	5.97422	0.259616	0.787823
C	5.56658	-0.932346	0.373475
N	4.55446	-0.840882	-0.521419
H	3.51281	0.886021	-1.37077
H	5.28306	2.23652	0.260732
H	5.97464	-1.90471	0.693214
H	4.06292	-1.63916	-0.993014
