18
  This energy is -0.8944 and Call times are: 76763
C	-0.790203	0.811374	0.0604427
C	-0.620301	-0.117515	1.04466
C	0.453211	-0.954221	0.611515
C	0.844552	-0.46277	-0.599147
O	0.0959634	0.615519	-0.951171
H	-1.49676	1.65187	-0.0375248
H	-1.19344	-0.204752	1.98167
H	0.877896	-1.81917	1.14593
H	1.63168	-0.78647	-1.29979
C	6.56869	0.0302338	0.135475
C	5.65562	-0.589878	0.961864
N	4.39086	-0.423703	0.504407
C	4.51881	0.29676	-0.60157
N	5.81256	0.59588	-0.866773
H	7.6664	0.106489	0.187929
H	5.88679	-1.15421	1.87998
H	3.69793	0.632937	-1.25531
H	6.17129	1.15262	-1.68079
