18
  This energy is -0.7907 and Call times are: 128677
C	-0.190137	0.835901	-0.742643
C	-1.19926	0.218038	-0.0641961
C	-0.571342	-0.763329	0.762093
C	0.766063	-0.658533	0.515638
O	1.01689	0.313171	-0.400816
H	-0.200088	1.65011	-1.48576
H	-2.27763	0.431892	-0.138187
H	-1.06607	-1.46165	1.45613
H	1.6298	-1.2098	0.922224
C	5.8019	0.907308	0.556764
C	4.49822	0.476842	0.684285
N	4.25901	-0.597884	-0.105814
C	5.40992	-0.833253	-0.721151
N	6.37149	0.0471638	-0.355323
H	6.34645	1.73718	1.03458
H	3.72594	0.922482	1.33224
H	5.60359	-1.63735	-1.44927
H	7.36217	0.0701582	-0.700689
