18
  This energy is -1.1225 and Call times are: 150333
C	0.641319	-0.850537	-0.389483
C	-0.390197	-0.324272	-1.11017
C	-0.946883	0.71033	-0.297881
C	-0.206406	0.724964	0.847481
O	0.767911	-0.22172	0.808672
H	1.35098	-1.66339	-0.615112
H	-0.725447	-0.633604	-2.11318
H	-1.79957	1.36265	-0.545866
H	-0.271322	1.35166	1.75208
C	4.14898	-0.233433	-0.875536
C	4.40306	-1.01949	0.228412
N	5.32675	-0.44395	1.03591
C	5.6445	0.694824	0.435197
N	4.96126	0.867708	-0.721043
H	3.47025	-0.374992	-1.73159
H	3.93643	-1.99159	0.456714
H	6.37135	1.43906	0.798557
H	5.03606	1.68488	-1.37518
