18
  This energy is -1.3051 and Call times are: 121735
C	-0.276273	0.316132	-1.05363
C	0.62811	-0.673219	-0.801338
C	0.705993	-0.778358	0.620983
C	-0.157672	0.156024	1.11229
O	-0.766202	0.833669	0.103581
H	-0.652109	0.739253	-1.99966
H	1.18456	-1.26919	-1.54248
H	1.33483	-1.47205	1.20188
H	-0.425141	0.432856	2.14529
C	4.94494	-0.633067	-0.961418
C	4.23053	-1.04774	0.142585
N	4.13986	-0.059437	1.06538
C	4.79552	0.964454	0.535869
N	5.29961	0.66859	-0.685586
H	5.21696	-1.15474	-1.89276
H	3.7789	-2.04232	0.289799
H	4.93688	1.95394	0.999723
H	5.85483	1.30879	-1.30456
