18
  This energy is -0.7562 and Call times are: 115405
C	0.992569	-0.546842	-0.0466009
C	-0.188299	-1.19381	0.171013
C	-1.19618	-0.181783	0.161247
C	-0.542239	0.994283	-0.0614735
O	0.795133	0.790031	-0.190824
H	2.02755	-0.919255	-0.119915
H	-0.334913	-2.27522	0.323152
H	-2.27961	-0.322523	0.304308
H	-0.909622	2.03001	-0.148376
C	6.93701	-0.107503	0.284147
C	6.29963	-0.665373	-0.803821
N	4.98547	-0.335009	-0.822577
C	4.80826	0.424919	0.249676
N	5.95518	0.591767	0.949896
H	7.98484	-0.156982	0.620515
H	6.76446	-1.30033	-1.57558
H	3.85927	0.885026	0.568978
H	6.07388	1.14786	1.8319
