18
  This energy is -0.8897 and Call times are: 35898
C	0.369858	-0.0239675	-1.07193
C	1.22058	0.00608788	-0.00621524
C	0.390661	0.0298829	1.15602
C	-0.893947	0.0122674	0.697931
O	-0.925367	-0.020659	-0.660355
H	0.558762	-0.0491942	-2.15771
H	2.32204	0.0110092	-0.0355861
H	0.720716	0.0569217	2.20694
H	-1.85979	0.020149	1.22928
C	4.99946	-0.309966	0.963515
C	5.71563	0.852797	0.773206
N	6.28319	0.881282	-0.457068
C	5.92049	-0.259472	-1.02782
N	5.14569	-1.0126	-0.211691
H	4.41557	-0.674969	1.82339
H	5.83299	1.67168	1.50157
H	6.19432	-0.593368	-2.04161
H	4.73467	-1.95266	-0.432162
