18
  This energy is -1.0421 and Call times are: 88719
C	-0.981464	0.225457	0.521823
C	-0.559864	0.920784	-0.573234
C	0.699358	0.352669	-0.936169
C	0.936091	-0.639674	-0.030858
O	-0.0801138	-0.731369	0.866879
H	-1.89114	0.313665	1.13823
H	-1.08312	1.75052	-1.07508
H	1.34654	0.654341	-1.77536
H	1.7785	-1.34194	0.0805663
C	5.58114	0.315462	1.02668
C	5.46646	1.09215	-0.106786
N	4.85866	0.409591	-1.10739
C	4.59727	-0.785986	-0.59661
N	5.01356	-0.892431	0.687509
H	6.0121	0.529677	2.0176
H	5.81139	2.13279	-0.220511
H	4.1028	-1.62063	-1.1192
H	4.9215	-1.73464	1.30676
