18
  This energy is -1.4373 and Call times are: 139893
C	0.78	0.389704	-0.72535
C	0.834065	-0.868245	-0.200932
C	-0.303653	-0.984354	0.654775
C	-0.952527	0.212892	0.577728
O	-0.304626	1.06398	-0.260651
H	1.44363	0.917144	-1.43009
H	1.59844	-1.63726	-0.397009
H	-0.596779	-1.86129	1.25407
H	-1.87192	0.578779	1.06362
C	4.38186	-0.848374	-0.785983
C	4.48149	0.504197	-1.03452
N	4.74117	1.19232	0.103711
C	4.80241	0.270154	1.05475
N	4.59245	-0.976194	0.568824
H	4.18265	-1.70057	-1.45503
H	4.37065	0.995874	-2.01473
H	4.99805	0.452746	2.12368
H	4.59047	-1.86966	1.11925
