18
  This energy is -0.887 and Call times are: 113241
C	-0.506182	-0.930247	-0.405982
C	-1.18981	0.0373354	0.269894
C	-0.223194	1.03091	0.614245
C	0.965791	0.582778	0.118398
O	0.811517	-0.613514	-0.507778
H	-0.837982	-1.87903	-0.858714
H	-2.26674	0.0501178	0.502617
H	-0.401658	1.96721	1.16704
H	1.97894	1.01645	0.144796
C	4.92171	0.522592	0.71152
C	4.72073	-0.614624	-0.0417988
N	5.83277	-0.937125	-0.745984
C	6.72025	-0.00352954	-0.430721
N	6.21899	0.899619	0.444865
H	4.2556	1.07193	1.39567
H	3.79325	-1.20819	-0.0898201
H	7.75169	0.0661748	-0.81219
H	6.72263	1.72903	0.844464
