18
  This energy is -0.9321 and Call times are: 196723
C	-1.03338	-0.168665	0.435976
C	-0.525208	-0.948161	-0.56128
C	0.778001	-0.431869	-0.835519
C	0.951155	0.617549	0.0183616
O	-0.145183	0.792578	0.802209
H	-2.00097	-0.195124	0.963534
H	-1.01857	-1.80115	-1.05432
H	1.49596	-0.80497	-1.58347
H	1.79685	1.30946	0.164342
C	6.16524	0.610632	-0.653167
C	6.07684	-0.761354	-0.548363
N	5.07881	-1.12379	0.293712
C	4.55007	0.0190119	0.709726
N	5.17031	1.09354	0.167254
H	6.84314	1.25598	-1.23413
H	6.71532	-1.49621	-1.06526
H	3.7073	0.126336	1.41148
H	4.93761	2.10233	0.338927
