18
  This energy is -1.327 and Call times are: 190345
C	0.759695	-0.406854	-0.737383
C	-0.334344	0.304768	-1.13367
C	-1.0388	0.637786	0.0633888
C	-0.313053	0.100269	1.08552
O	0.788622	-0.541327	0.614687
H	1.58085	-0.865785	-1.31213
H	-0.616938	0.568705	-2.16546
H	-1.97618	1.21126	0.144269
H	-0.472076	0.104699	2.17636
C	5.41656	-0.803136	0.832567
C	6.33342	-0.230831	-0.0235718
N	5.73692	0.656726	-0.856005
C	4.45489	0.63512	-0.517572
N	4.21094	-0.229393	0.495689
H	5.53283	-1.55307	1.63107
H	7.41465	-0.442437	-0.0555369
H	3.65202	1.23229	-0.97912
H	3.28064	-0.425287	0.940014
