18
  This energy is -0.7457 and Call times are: 45260
C	0.77682	-0.328726	0.758215
C	0.83685	-0.694381	-0.554441
C	-0.298408	-0.0942036	-1.17982
C	-0.95196	0.585229	-0.194112
O	-0.309238	0.4529	0.996018
H	1.4368	-0.556142	1.61142
H	1.60365	-1.32362	-1.0342
H	-0.586825	-0.165585	-2.24086
H	-1.87158	1.1929	-0.211054
C	6.47609	0.563912	0.857448
C	6.95769	0.250875	-0.396035
N	6.02357	-0.401921	-1.12938
C	4.9665	-0.493514	-0.333878
N	5.18931	0.0739448	0.875228
H	6.94244	1.08335	1.70965
H	7.96243	0.484355	-0.784398
H	4.0036	-0.966018	-0.586465
H	4.51105	0.129989	1.67403
