18
  This energy is -1.3289 and Call times are: 136667
C	0.242638	0.414281	-1.02757
C	-0.240915	-0.847858	-0.844384
C	-0.418695	-0.99774	0.564888
C	-0.028086	0.186038	1.11848
O	0.378827	1.05996	0.160521
H	0.525351	0.963529	-1.94061
H	-0.451309	-1.59806	-1.6235
H	-0.794332	-1.88726	1.09568
H	0.00726553	0.52674	2.1663
C	4.66102	-0.963895	0.493422
C	3.68725	-0.918442	-0.481702
N	3.39293	0.360644	-0.819083
C	4.18111	1.10587	-0.056163
N	4.96472	0.353964	0.752654
H	5.14326	-1.81248	1.00418
H	3.19179	-1.78566	-0.94785
H	4.22495	2.20689	-0.0494388
H	5.66937	0.707538	1.44526
