18
  This energy is -0.7267 and Call times are: 78937
C	-0.335891	1.05569	-0.243079
C	0.661024	0.793829	0.650209
C	0.791839	-0.628084	0.68439
C	-0.136683	-1.10961	-0.191027
O	-0.834408	-0.0951908	-0.766486
H	-0.777186	2.00496	-0.588631
H	1.24563	1.52829	1.22719
H	1.49804	-1.21528	1.29314
H	-0.395961	-2.13879	-0.48902
C	5.6214	-0.90127	0.703696
C	4.75985	0.0453268	0.191026
N	5.42121	0.939847	-0.582896
C	6.68823	0.549669	-0.550469
N	6.86045	-0.556028	0.212004
H	5.44631	-1.76726	1.36168
H	3.6729	0.09887	0.365699
H	7.53057	1.03743	-1.06697
H	7.76542	-1.0552	0.393945
