18
  This energy is -1.063 and Call times are: 154898
C	-0.0945695	-0.585648	-0.966682
C	-0.33554	0.755114	-0.89839
C	-0.115083	1.1231	0.464
C	0.241144	-0.0252792	1.10798
O	0.258802	-1.07869	0.249479
H	-0.139296	-1.29449	-1.80977
H	-0.638176	1.41845	-1.72452
H	-0.212807	2.12847	0.904197
H	0.503161	-0.222111	2.16052
C	3.94466	0.441466	0.276525
C	5.10361	1.15143	0.0442648
N	6.13419	0.321933	-0.249586
C	5.61656	-0.897987	-0.199812
N	4.29935	-0.879072	0.113527
H	2.92658	0.771488	0.537558
H	5.21462	2.24733	0.0834554
H	6.15743	-1.84014	-0.384323
H	3.66846	-1.71172	0.213292
