18
  This energy is -0.5763 and Call times are: 140085
C	0.823273	0.000316146	0.780142
C	-0.498669	-0.04286	1.11327
C	-1.21408	-0.0281146	-0.122882
C	-0.266165	0.02277	-1.10229
O	0.983667	0.0407619	-0.568802
H	1.73393	0.00716988	1.40135
H	-0.927034	-0.0812408	2.12773
H	-2.30742	-0.0527897	-0.257422
H	-0.350933	0.0501404	-2.20107
C	4.97945	-0.231726	0.695691
C	5.53396	1.00481	0.441423
N	6.5851	0.90364	-0.407912
C	6.68233	-0.390733	-0.679516
N	5.73662	-1.11733	-0.0382008
H	4.12802	-0.534063	1.32593
H	5.1944	1.96814	0.855596
H	7.4276	-0.860415	-1.34149
H	5.60521	-2.15718	-0.0901367
