18
  This energy is -1.8468 and Call times are: 24917
C	-0.234351	-1.07434	-0.278001
C	-0.274817	-0.058959	-1.18781
C	0.075537	1.12445	-0.468834
C	0.299171	0.727763	0.816858
O	0.114451	-0.61193	0.951442
H	-0.430047	-2.15452	-0.378775
H	-0.526169	-0.135625	-2.25787
H	0.149836	2.14775	-0.870618
H	0.590959	1.29417	1.71647
C	4.13726	-1.05581	-0.51862
C	4.90159	0.0479139	-0.832849
N	4.5967	1.09755	-0.031711
C	3.64684	0.646699	0.77645
N	3.33472	-0.646283	0.522727
H	4.10861	-2.06988	-0.948025
H	5.66758	0.105681	-1.62328
H	3.14524	1.22121	1.57179
H	2.61795	-1.22629	1.02381
