18
  This energy is -1.2061 and Call times are: 124801
C	0.0477186	-1.12409	0.143372
C	-0.463423	-0.552674	-0.984722
C	-0.351935	0.858363	-0.793248
C	0.217494	1.02465	0.43495
O	0.468277	-0.175563	1.02112
H	0.16674	-2.17945	0.438833
H	-0.877442	-1.07265	-1.86353
H	-0.662327	1.64993	-1.49408
H	0.491639	1.93261	0.996829
C	5.49247	-0.743754	0.188215
C	5.38314	0.551123	0.649177
N	4.22126	1.11801	0.242753
C	3.6121	0.17839	-0.467641
N	4.33823	-0.96285	-0.530066
H	6.28357	-1.49961	0.316218
H	6.12181	1.08648	1.26773
H	2.63295	0.273091	-0.964157
H	4.07257	-1.84627	-1.03032
