18
  This energy is -0.7992 and Call times are: 12941
C	1.03998	-0.131351	0.433106
C	0.644758	-0.747798	-0.717617
C	-0.707679	-0.342417	-0.933718
C	-1.01952	0.485966	0.104025
O	0.0361369	0.626132	0.948394
H	1.99605	-0.150523	0.981585
H	1.24535	-1.4205	-1.35075
H	-1.36417	-0.638322	-1.76772
H	-1.94524	1.03084	0.351822
C	6.06092	-0.325204	-0.917891
C	5.14592	0.705602	-0.880938
N	4.56359	0.798547	0.339212
C	5.11523	-0.170911	1.05648
N	6.02441	-0.876839	0.343281
H	6.71368	-0.692977	-1.72547
H	4.89551	1.38392	-1.71282
H	4.88987	-0.407903	2.10875
H	6.59315	-1.68954	0.68579
