18
  This energy is -1.143 and Call times are: 12771
C	-0.00654737	-0.338711	-1.08242
C	1.1455	-0.0305446	-0.420458
C	0.749359	0.346763	0.898947
C	-0.609795	0.235855	0.926781
O	-1.08825	-0.18161	-0.274806
H	-0.187803	-0.677445	-2.1157
H	2.17135	-0.0654235	-0.821089
H	1.407	0.662588	1.72469
H	-1.34224	0.422107	1.72933
C	4.87136	-0.0292864	0.923751
C	6.01017	0.736818	0.792051
N	6.6088	0.520691	-0.404374
C	5.84428	-0.376082	-1.01259
N	4.78402	-0.739502	-0.25275
H	4.14127	-0.116424	1.74407
H	6.41058	1.44163	1.53888
H	6.01481	-0.800846	-2.01495
H	4.03764	-1.43062	-0.510705
