18
  This energy is -1.7316 and Call times are: 47428
C	0.186255	0.545852	0.976604
C	-0.436009	1.13702	-0.0834321
C	-0.484095	0.146057	-1.11095
C	0.113028	-0.9632	-0.588107
O	0.528434	-0.736899	0.685956
H	0.441546	0.925916	1.97941
H	-0.822396	2.16755	-0.136473
H	-0.915177	0.255489	-2.11906
H	0.301413	-1.96197	-1.01498
C	3.33521	0.509784	-0.735056
C	4.32566	1.13468	-0.00728912
N	5.02231	0.241818	0.737019
C	4.46614	-0.932523	0.472007
N	3.44451	-0.823866	-0.410064
H	2.58534	0.906519	-1.43779
H	4.55009	2.21379	-0.00593487
H	4.76788	-1.90367	0.896336
H	2.84912	-1.60645	-0.77656
