18
  This energy is -0.838 and Call times are: 178953
C	0.48858	0.583996	-0.840618
C	-0.333036	-0.47991	-1.07176
C	-0.744547	-0.942981	0.215233
C	-0.138074	-0.121172	1.11922
O	0.618877	0.817194	0.491918
H	1.03467	1.24921	-1.52947
H	-0.620478	-0.896786	-2.05037
H	-1.41449	-1.79028	0.432865
H	-0.164556	-0.10027	2.22109
C	5.81927	-0.361745	0.464037
C	4.92743	0.530791	1.02005
N	3.85621	0.718905	0.211581
C	4.08264	-0.0539906	-0.841979
N	5.25351	-0.726075	-0.737369
H	6.7843	-0.750455	0.826197
H	5.03772	1.04238	1.99008
H	3.42394	-0.165361	-1.71831
H	5.65404	-1.39689	-1.43797
