18
  This energy is -0.9907 and Call times are: 157866
C	0.737008	0.515424	-0.691056
C	1.11794	-0.449968	0.193976
C	-0.0731784	-0.849369	0.873559
C	-1.07684	-0.0927878	0.343818
O	-0.600027	0.746234	-0.613107
H	1.31378	1.10656	-1.42123
H	2.13562	-0.841547	0.352371
H	-0.162635	-1.61219	1.66362
H	-2.15739	-0.0573802	0.55922
C	5.54409	0.389958	1.10103
C	5.97606	1.00171	-0.05669
N	5.63855	0.274122	-1.14903
C	4.99963	-0.784978	-0.670792
N	4.91663	-0.761422	0.680558
H	5.63575	0.682709	2.15906
H	6.5252	1.95504	-0.12336
H	4.57213	-1.60799	-1.26588
H	4.46108	-1.48281	1.29158
