18
  This energy is -1.8596 and Call times are: 38472
C	-0.198214	-0.887222	-0.678196
C	-0.501801	-0.902043	0.651462
C	-0.110654	0.37564	1.15609
C	0.397428	1.05844	0.0902529
O	0.351745	0.302324	-1.03811
H	-0.322672	-1.64919	-1.46507
H	-0.955654	-1.72968	1.2199
H	-0.200938	0.735596	2.19357
H	0.817213	2.07425	0.0055198
C	4.08632	-0.978979	-0.572975
C	5.18514	-0.814102	0.243454
N	5.23993	0.445416	0.740569
C	4.17914	1.05957	0.23446
N	3.45167	0.243037	-0.564068
H	3.7232	-1.85037	-1.14074
H	5.93938	-1.58139	0.482713
H	3.8879	2.1067	0.415943
H	2.57182	0.493191	-1.07841
