18
  This energy is -0.8182 and Call times are: 18834
C	-0.407255	0.985575	0.386246
C	0.836514	0.873943	-0.162344
C	0.982786	-0.500287	-0.523195
C	-0.18451	-1.10711	-0.16326
O	-1.04486	-0.214598	0.393718
H	-0.947651	1.85154	0.802574
H	1.57672	1.6786	-0.299174
H	1.85895	-0.972967	-0.995432
H	-0.521383	-2.15326	-0.24902
C	5.53743	0.725786	0.888471
C	4.88858	0.634325	-0.324698
N	5.4575	-0.309706	-1.11315
C	6.45549	-0.802024	-0.391852
N	6.54514	-0.210371	0.82285
H	5.35931	1.36934	1.76463
H	4.02013	1.23259	-0.645207
H	7.15162	-1.59677	-0.704907
H	7.24833	-0.424071	1.57193
