18
  This energy is -0.9866 and Call times are: 76635
C	0.42477	-0.346539	0.992916
C	0.336823	-1.16968	-0.0910974
C	-0.24143	-0.382913	-1.13357
C	-0.455798	0.85155	-0.594568
O	-0.0547858	0.891682	0.70335
H	0.804061	-0.51956	2.01343
H	0.647939	-2.22502	-0.150642
H	-0.467795	-0.706969	-2.16208
H	-0.881088	1.77323	-1.02455
C	4.601	1.03794	0.242429
C	4.20304	-0.199244	0.703028
N	5.00576	-1.18038	0.223931
C	5.8983	-0.554245	-0.531016
N	5.69676	0.784607	-0.552127
H	4.19551	2.04705	0.417985
H	3.3511	-0.401498	1.37246
H	6.72085	-1.02787	-1.09077
H	6.26664	1.49443	-1.07428
