18
  This energy is -0.6241 and Call times are: 183864
C	-0.925113	-0.627724	0.191124
C	-0.819596	0.210495	-0.879683
C	0.470072	0.815725	-0.776861
C	1.0388	0.293925	0.347702
O	0.200739	-0.589379	0.951386
H	-1.73807	-1.29621	0.518984
H	-1.57423	0.385092	-1.66335
H	0.914171	1.55288	-1.46496
H	2.0203	0.467561	0.818629
C	6.6	-0.555624	-0.660584
C	6.28404	0.786001	-0.697415
N	5.31522	1.0847	0.201846
C	5.03122	-0.0672465	0.794301
N	5.77919	-1.0865	0.309277
H	7.32663	-1.15032	-1.23669
H	6.73778	1.5438	-1.35674
H	4.28412	-0.220767	1.5896
H	5.7411	-2.08998	0.613984
