18
  This energy is -1.3187 and Call times are: 156554
C	-0.191651	1.04583	0.39485
C	0.0873007	-0.0057651	1.21747
C	0.263975	-1.13554	0.3616
C	0.077391	-0.674599	-0.908475
O	-0.201744	0.655474	-0.906891
H	-0.399257	2.10699	0.609564
H	0.161237	0.0122956	2.3167
H	0.502129	-2.1676	0.665304
H	0.115611	-1.18541	-1.88462
C	5.33461	-0.538392	-0.404047
C	6.61538	-1.0482	-0.374545
N	7.48457	-0.155303	0.15814
C	6.74583	0.904413	0.457961
N	5.44264	0.722786	0.138124
H	4.38561	-0.969436	-0.760597
H	6.92785	-2.04431	-0.728077
H	7.10841	1.84009	0.913231
H	4.66306	1.41148	0.276746
