18
  This energy is -0.5729 and Call times are: 156650
C	1.11766	-0.187654	-0.0450851
C	0.573577	0.803211	0.718157
C	-0.83786	0.723554	0.51415
C	-1.03169	-0.308958	-0.355748
O	0.151782	-0.876851	-0.707738
H	2.16331	-0.50034	-0.200267
H	1.11214	1.51846	1.36039
H	-1.61122	1.36476	0.966761
H	-1.94991	-0.73248	-0.794786
C	7.37238	0.081315	0.0632155
C	6.53747	0.792154	-0.772713
N	5.24168	0.445948	-0.57886
C	5.2726	-0.476162	0.373706
N	6.53435	-0.731015	0.793976
H	8.46707	0.095563	0.185697
H	6.84686	1.54862	-1.51223
H	4.40057	-0.997273	0.800593
H	6.81984	-1.41677	1.53526
