18
  This energy is -0.9869 and Call times are: 82900
C	0.0549565	-0.438533	1.04454
C	1.16035	-0.272671	0.262903
C	0.692424	0.297894	-0.960051
C	-0.657611	0.430329	-0.817781
O	-1.06409	-0.0144853	0.400386
H	-0.06621	-0.841557	2.06344
H	2.20088	-0.526636	0.521574
H	1.29801	0.574265	-1.83811
H	-1.42986	0.82119	-1.50051
C	4.95139	-1.0795	0.136139
C	5.55804	-0.307368	1.1041
N	5.95811	0.884635	0.598544
C	5.60102	0.852116	-0.67819
N	4.99032	-0.311166	-1.00594
H	4.50948	-2.08772	0.177815
H	5.71423	-0.589022	2.1582
H	5.76262	1.65304	-1.41754
H	4.61752	-0.577122	-1.95015
