18
  This energy is -0.7369 and Call times are: 150813
C	0.290446	-0.653057	-0.880658
C	1.19472	0.123399	-0.217499
C	0.459845	0.786703	0.812115
C	-0.828627	0.357027	0.687247
O	-0.950249	-0.522689	-0.341499
H	0.402783	-1.33394	-1.74032
H	2.27125	0.219423	-0.431865
H	0.853316	1.49926	1.55477
H	-1.7388	0.599062	1.26019
C	5.23866	-0.923437	-0.308197
C	5.23064	0.329217	-0.884337
N	6.12131	1.15145	-0.278405
C	6.67975	0.411698	0.670031
N	6.18133	-0.84713	0.692676
H	4.65958	-1.83341	-0.532135
H	4.59814	0.654443	-1.72637
H	7.45868	0.742023	1.376
H	6.4599	-1.61811	1.34784
