18
  This energy is -0.5863 and Call times are: 74742
C	-0.545015	0.597072	0.795528
C	0.501473	-0.22684	1.08948
C	0.914768	-0.793144	-0.154954
C	0.0843533	-0.265301	-1.0995
O	-0.813375	0.585797	-0.536714
H	-1.174	1.23697	1.43597
H	0.938528	-0.416757	2.08296
H	1.73598	-1.50944	-0.318159
H	0.0304254	-0.41336	-2.19056
C	5.90793	-0.311681	1.11851
C	4.96082	-0.155507	0.128696
N	5.53452	0.210918	-1.0431
C	6.8326	0.281795	-0.781239
N	7.10862	-0.0243438	0.5086
H	5.81556	-0.597426	2.17839
H	3.87381	-0.30066	0.239078
H	7.62493	0.553047	-1.49739
H	8.05664	-0.0398602	0.958346
