18
  This energy is -0.6241 and Call times are: 81590
C	1.03109	-0.377928	0.283596
C	0.459021	0.704515	0.884786
C	-0.818408	0.865515	0.266424
C	-0.914191	-0.132757	-0.658051
O	0.206403	-0.901699	-0.661162
H	2.00645	-0.86847	0.436234
H	0.893053	1.32714	1.68357
H	-1.57174	1.63779	0.49044
H	-1.71625	-0.399285	-1.3658
C	6.64579	0.910377	-0.0102122
C	5.28945	0.95449	0.233783
N	4.74032	-0.282601	0.166137
C	5.75215	-1.0911	-0.11874
N	6.92231	-0.419707	-0.235157
H	7.40836	1.70486	-0.0387405
H	4.69724	1.85678	0.457422
H	5.6919	-2.18315	-0.252987
H	7.86131	-0.833537	-0.454906
