18
  This energy is -1.8272 and Call times are: 189735
C	0.307011	0.0540478	-1.09052
C	-0.115923	1.14888	-0.395641
C	-0.407366	0.68597	0.923789
C	-0.136801	-0.65087	0.918724
O	0.300536	-1.05379	-0.303325
H	0.635934	-0.0662903	-2.13578
H	-0.212936	2.1791	-0.774225
H	-0.775273	1.28592	1.77161
H	-0.213392	-1.4153	1.70932
C	3.27844	1.03391	0.209977
C	3.57591	0.492375	-1.02266
N	4.17703	-0.71531	-0.893588
C	4.2522	-0.9222	0.414147
N	3.72382	0.103785	1.1225
H	2.79738	1.98368	0.492937
H	3.36756	0.951433	-2.00281
H	4.68446	-1.80794	0.90695
H	3.66469	0.1768	2.16769
