18
  This energy is -0.9949 and Call times are: 201903
C	-0.604355	-0.90643	0.315502
C	-1.14064	0.34654	0.262195
C	-0.0850861	1.2055	-0.171538
C	1.00305	0.401597	-0.34499
O	0.703957	-0.891366	-0.0520669
H	-1.04318	-1.8782	0.595393
H	-2.1757	0.6368	0.504045
H	-0.139022	2.29415	-0.33284
H	2.03292	0.624976	-0.668596
C	4.68824	0.231831	1.14842
C	4.74696	1.14937	0.120886
N	4.87744	0.532141	-1.07849
C	4.89959	-0.763385	-0.796102
N	4.78861	-0.996042	0.533238
H	4.58557	0.361436	2.23754
H	4.6975	2.24568	0.223462
H	4.99522	-1.58453	-1.52466
H	4.78055	-1.93323	1.00534
