18
  This energy is -1.4627 and Call times are: 162266
C	-0.176147	0.223581	-1.0979
C	0.845113	-0.57247	-0.669291
C	0.738252	-0.612915	0.754459
C	-0.338875	0.161991	1.0702
O	-0.909358	0.68079	-0.0489132
H	-0.483554	0.537515	-2.10894
H	1.59815	-1.08025	-1.29314
H	1.39196	-1.15829	1.45397
H	-0.794969	0.41965	2.04017
C	5.27082	-0.800456	0.819159
C	5.84596	0.441749	0.653985
N	5.29055	1.10234	-0.390841
C	4.37434	0.273094	-0.872018
N	4.32376	-0.887729	-0.176661
H	5.46207	-1.60179	1.55048
H	6.65172	0.873176	1.26999
H	3.71272	0.465728	-1.73189
H	3.68484	-1.69955	-0.361
