18
  This energy is -0.8063 and Call times are: 187590
C	-0.206792	-0.185767	1.0996
C	1.05812	-0.144916	0.590984
C	0.909445	0.107133	-0.807045
C	-0.433201	0.198057	-1.02933
O	-1.13001	0.0217	0.124088
H	-0.577738	-0.352009	2.12431
H	2.00127	-0.278841	1.14473
H	1.71439	0.207487	-1.55275
H	-1.01102	0.382517	-1.94984
C	5.02298	-0.0422802	-0.65478
C	5.39139	-0.92339	0.339738
N	6.58041	-0.572821	0.887312
C	6.94824	0.52161	0.234974
N	6.04255	0.881924	-0.704963
H	4.13698	-0.00865041	-1.30854
H	4.82055	-1.80578	0.671982
H	7.87112	1.09905	0.405502
H	6.1051	1.70794	-1.3492
