18
  This energy is -1.2847 and Call times are: 147130
C	0.447217	-0.674597	0.794555
C	0.303991	-1.06979	-0.503012
C	-0.286997	0.0368363	-1.18582
C	-0.452745	1.01059	-0.245228
O	-0.00975999	0.593247	0.969928
H	0.85427	-1.19543	1.67676
H	0.5862	-2.04296	-0.935905
H	-0.554108	0.0922704	-2.25337
H	-0.867993	2.02952	-0.313077
C	3.87953	-0.00168416	-0.733364
C	4.02834	-0.75847	0.40956
N	5.21465	-0.503865	1.01316
C	5.79958	0.407405	0.247612
N	5.03461	0.743167	-0.818068
H	3.06071	0.0575571	-1.46792
H	3.30096	-1.48364	0.809451
H	6.78785	0.862838	0.421201
H	5.27552	1.43843	-1.56629
