18
  This energy is -1.4242 and Call times are: 106518
C	0.334882	0.489384	-0.966829
C	-0.257482	-0.738859	-0.936845
C	-0.529256	-1.00839	0.43924
C	-0.078979	0.0789438	1.12869
O	0.451839	1.00348	0.285785
H	0.713639	1.09816	-1.8042
H	-0.480665	-1.38977	-1.79743
H	-1.00505	-1.90982	0.85772
H	-0.0783694	0.312695	2.206
C	4.13507	0.857742	-0.658188
C	3.77531	0.514106	0.627749
N	4.51954	-0.523019	1.08273
C	5.33789	-0.821652	0.0828491
N	5.14519	-0.0175292	-0.98946
H	3.75638	1.6372	-1.33832
H	2.99209	0.995937	1.2354
H	6.09766	-1.61976	0.0827507
H	5.66604	-0.0538998	-1.89976
