18
  This energy is -0.6685 and Call times are: 111230
C	0.69639	-0.719588	-0.532574
C	-0.336985	-1.14653	0.2486
C	-0.971999	0.0358018	0.737445
C	-0.270616	1.08087	0.211843
O	0.751775	0.637912	-0.566305
H	1.45377	-1.27434	-1.1104
H	-0.623349	-2.18943	0.459439
H	-1.8486	0.0918705	1.40266
H	-0.396798	2.17122	0.314196
C	5.51044	0.535014	-1.00747
C	4.83722	-0.502774	-0.39844
N	5.4505	-0.875107	0.75124
C	6.50019	-0.0713605	0.855041
N	6.58021	0.796936	-0.180937
H	5.31062	1.08726	-1.93948
H	3.91997	-0.989542	-0.767986
H	7.24252	-0.075772	1.66939
H	7.31683	1.53	-0.326742
