18
  This energy is -0.4545 and Call times are: 168122
C	1.11626	-0.102273	0.172904
C	0.363483	0.845325	0.801994
C	-0.972492	0.658443	0.332566
C	-0.918171	-0.386858	-0.541944
O	0.349766	-0.863643	-0.6516
H	2.19254	-0.334818	0.225942
H	0.713836	1.60019	1.52416
H	-1.86392	1.2396	0.618403
H	-1.70078	-0.879432	-1.14207
C	5.82368	0.994231	0.25388
C	5.42845	-0.291634	0.556343
N	6.33407	-1.19785	0.1146
C	7.2875	-0.476915	-0.459725
N	7.02606	0.85044	-0.401717
H	5.3502	1.96893	0.452161
H	4.50606	-0.581728	1.08539
H	8.19892	-0.870207	-0.938131
H	7.62515	1.62287	-0.783431
