18
  This energy is -0.8505 and Call times are: 172075
C	0.443966	-0.883958	-0.554899
C	1.21682	0.0375883	0.0883862
C	0.308029	0.98098	0.657787
C	-0.939957	0.552647	0.31219
O	-0.875753	-0.584984	-0.428542
H	0.708574	-1.78585	-1.13094
H	2.31657	0.0516258	0.155229
H	0.56305	1.87189	1.25388
H	-1.93985	0.963388	0.52842
C	6.01295	-0.592423	-1.01684
C	6.98789	0.259816	-0.543194
N	6.64541	0.771103	0.664204
C	5.46251	0.238079	0.938552
N	5.03815	-0.591158	-0.0442365
H	5.94609	-1.18011	-1.94619
H	7.93227	0.514938	-1.05103
H	4.86318	0.42087	1.84498
H	4.13806	-1.13039	-0.061942
