18
  This energy is -1.7954 and Call times are: 82329
C	-0.311751	0.666231	0.863336
C	-0.600891	-0.666247	0.827607
C	-0.0519933	-1.15272	-0.398025
C	0.524115	-0.0745742	-1.00307
O	0.374964	1.04467	-0.246718
H	-0.536209	1.44322	1.61244
H	-1.14602	-1.24819	1.58805
H	-0.0869248	-2.18684	-0.7768
H	1.06339	0.0255408	-1.95931
C	3.58969	-0.89613	-0.69696
C	4.20641	0.275757	-1.081
N	4.41743	1.08825	-0.0171191
C	3.93346	0.422948	1.02296
N	3.42325	-0.779181	0.664953
H	3.2682	-1.77569	-1.2771
H	4.50289	0.549559	-2.10666
H	3.92715	0.769705	2.06888
H	2.98449	-1.48723	1.30324
