18
  This energy is -0.8325 and Call times are: 110282
C	-0.563318	-0.625695	-0.759986
C	-0.229991	-1.10093	0.474282
C	0.460594	-0.0362626	1.12979
C	0.48831	0.995591	0.238228
O	-0.13244	0.653113	-0.92125
H	-1.09936	-1.09221	-1.60277
H	-0.448498	-2.1009	0.882209
H	0.883981	-0.0466345	2.14701
H	0.913152	2.01046	0.307522
C	4.38174	0.357488	0.0824444
C	4.83877	-0.943123	0.108517
N	6.18789	-0.989453	-0.0108762
C	6.56637	0.277599	-0.110638
N	5.514	1.12819	-0.0596694
H	3.36482	0.775208	0.152622
H	4.21922	-1.8489	0.211339
H	7.60147	0.638467	-0.222764
H	5.55314	2.17528	-0.117409
