18
  This energy is -1.1692 and Call times are: 53907
C	0.335195	0.390606	-1.01068
C	0.849826	-0.745973	-0.459574
C	0.18793	-0.906099	0.795962
C	-0.672747	0.146765	0.901262
O	-0.596004	0.948817	-0.193194
H	0.545474	0.900322	-1.96526
H	1.61844	-1.40545	-0.893647
H	0.341316	-1.71441	1.5289
H	-1.38343	0.433681	1.69364
C	5.01911	1.08674	-0.395074
C	5.19468	0.622901	0.891461
N	4.84194	-0.681623	0.992952
C	4.44903	-1.02577	-0.225986
N	4.53715	0.00571185	-1.09884
H	5.19709	2.07658	-0.844612
H	5.56956	1.20616	1.74827
H	4.08736	-2.0199	-0.534426
H	4.28616	-0.0142496	-2.1176
