18
  This energy is -1.0309 and Call times are: 192363
C	0.134813	0.478821	1.01929
C	1.18834	0.192496	0.201691
C	0.624138	-0.393447	-0.972389
C	-0.724359	-0.413458	-0.768607
O	-1.04094	0.11541	0.442626
H	0.0903392	0.934911	2.02192
H	2.2557	0.375543	0.404977
H	1.16708	-0.75503	-1.8604
H	-1.55387	-0.772649	-1.3996
C	6.01706	0.985828	0.180205
C	5.93993	-0.106848	1.01761
N	5.13711	-1.0662	0.496423
C	4.71778	-0.570558	-0.659922
N	5.22052	0.66438	-0.89608
H	6.56416	1.93766	0.270984
H	6.44918	-0.220171	1.98853
H	4.04172	-1.06977	-1.37263
H	5.03826	1.26295	-1.73855
