18
  This energy is -0.8748 and Call times are: 22279
C	0.87976	-0.509724	-0.502598
C	-0.0544819	0.194481	-1.20378
C	-0.987384	0.677647	-0.236126
C	-0.540871	0.226046	0.970959
O	0.598364	-0.50088	0.826969
H	1.77997	-1.05613	-0.828636
H	-0.083744	0.357353	-2.29315
H	-1.88377	1.28962	-0.426058
H	-0.938697	0.351914	1.99132
C	5.99807	-0.358272	0.670972
C	4.94592	0.445041	1.05673
N	4.09089	0.658243	0.0271744
C	4.61063	-0.010264	-0.99341
N	5.76091	-0.639977	-0.655898
H	6.86972	-0.736779	1.22819
H	4.78843	0.874608	2.05949
H	4.18986	-0.0722377	-2.00994
H	6.35827	-1.23033	-1.28511
