18
  This energy is -1.1088 and Call times are: 20726
C	-0.137385	-1.07233	-0.342969
C	0.0589593	-0.0449477	-1.21836
C	0.186884	1.13136	-0.41832
C	0.0574196	0.718955	0.875332
O	-0.141192	-0.623947	0.939975
H	-0.285656	-2.15262	-0.504951
H	0.108716	-0.109019	-2.31723
H	0.355545	2.16065	-0.773562
H	0.0871438	1.27538	1.82652
C	4.7126	-0.677399	0.91849
C	3.85806	-0.180594	-0.0428043
N	4.5289	0.563309	-0.955545
C	5.79479	0.528134	-0.561986
N	5.95721	-0.207312	0.563327
H	4.52923	-1.31106	1.80075
H	2.76948	-0.345592	-0.0941309
H	6.64324	1.02336	-1.0611
H	6.85937	-0.385477	1.06893
