18
  This energy is -0.7951 and Call times are: 81181
C	0.0637501	0.0391544	1.13173
C	-0.749646	-0.837543	0.475858
C	-0.554754	-0.585093	-0.916408
C	0.360533	0.423587	-0.988428
O	0.749143	0.817047	0.253016
H	0.242655	0.206523	2.20654
H	-1.41967	-1.58684	0.927205
H	-1.04363	-1.09974	-1.75916
H	0.810611	0.942216	-1.85081
C	5.25413	-1.07103	-0.17822
C	3.98646	-0.774844	0.27615
N	3.79939	0.564487	0.363944
C	4.94663	1.09716	-0.0344457
N	5.85591	0.152274	-0.372083
H	5.75392	-2.03364	-0.370901
H	3.20349	-1.50355	0.542199
H	5.17464	2.17336	-0.0980901
H	6.83312	0.319664	-0.716014
