18
  This energy is -1.2845 and Call times are: 12739
C	0.643382	-0.371135	0.857158
C	-0.0140172	-1.22042	0.0163743
C	-0.705354	-0.389176	-0.91701
C	-0.409391	0.894689	-0.564207
O	0.413149	0.924422	0.517252
H	1.29779	-0.561358	1.72366
H	-0.0122853	-2.32176	0.0500755
H	-1.34621	-0.717884	-1.75088
H	-0.716914	1.86106	-0.996419
C	6.76868	0.534892	0.586832
C	6.05015	1.04473	-0.473794
N	5.12334	0.156517	-0.908088
C	5.26636	-0.900321	-0.119885
N	6.24575	-0.721361	0.797915
H	7.58781	0.962867	1.18634
H	6.18388	2.03755	-0.933439
H	4.68008	-1.83192	-0.171267
H	6.54897	-1.40864	1.53069
