18
  This energy is -1.3988 and Call times are: 76827
C	0.399115	0.519618	0.925799
C	-0.39068	1.15631	0.0140878
C	-0.685081	0.186946	-0.992776
C	-0.0492014	-0.956541	-0.607461
O	0.617831	-0.77146	0.56208
H	0.863297	0.870147	1.86224
H	-0.73174	2.20353	0.0472645
H	-1.29978	0.333148	-1.89547
H	0.00535068	-1.95479	-1.07197
C	4.77809	-0.0651839	-1.02306
C	4.30465	1.07624	-0.411382
N	3.6863	0.783166	0.758343
C	3.77579	-0.53506	0.871899
N	4.42545	-1.09288	-0.177086
H	5.32283	-0.213901	-1.96894
H	4.39817	2.10599	-0.793126
H	3.3828	-1.14269	1.7029
H	4.6229	-2.11374	-0.318926
