18
  This energy is -0.5139 and Call times are: 97705
C	-1.08841	0.0172552	0.318531
C	-0.645232	-0.738231	-0.727034
C	0.75978	-0.49704	-0.815827
C	1.05115	0.384542	0.183317
O	-0.0657869	0.70944	0.886096
H	-2.0935	0.147283	0.752289
H	-1.24732	-1.39906	-1.37115
H	1.46364	-0.933687	-1.54247
H	2.001	0.850164	0.493529
C	7.33746	-0.700915	0.438715
C	7.52234	0.488602	-0.233605
N	6.33622	1.0331	-0.598497
C	5.41899	0.184604	-0.154236
N	5.97234	-0.877196	0.478199
H	8.05674	-1.41077	0.877227
H	8.49033	0.963697	-0.461927
H	4.32794	0.292293	-0.264913
H	5.45922	-1.68148	0.915335
