18
  This energy is -1.0679 and Call times are: 103134
C	0.010014	1.12547	-0.140078
C	1.12131	0.425236	0.227448
C	0.715759	-0.942438	0.298977
C	-0.607558	-0.957237	-0.0311529
O	-1.05506	0.29704	-0.302337
H	-0.150763	2.20166	-0.316762
H	2.12586	0.831102	0.428058
H	1.34336	-1.80781	0.566074
H	-1.33262	-1.78403	-0.108312
C	4.60786	0.400154	-0.863659
C	4.84486	-0.918235	-0.536823
N	5.69519	-1.01593	0.513849
C	5.9846	0.237094	0.83759
N	5.35367	1.12799	0.0364574
H	3.98212	0.856701	-1.64695
H	4.41754	-1.8007	-1.04031
H	6.65276	0.558673	1.65269
H	5.41999	2.1739	0.0906734
