18
  This energy is -0.9177 and Call times are: 159898
C	0.835767	0.740782	0.197828
C	0.958376	-0.275019	-0.704109
C	-0.283453	-0.979888	-0.670346
C	-1.0553	-0.332598	0.249242
O	-0.387622	0.720718	0.789376
H	1.53698	1.53372	0.505721
H	1.83533	-0.504897	-1.33037
H	-0.560769	-1.86494	-1.26522
H	-2.08196	-0.520416	0.604113
C	4.7844	-0.686375	0.275048
C	4.94416	0.0589549	-0.873909
N	6.12029	0.732041	-0.860112
C	6.688	0.405517	0.293019
N	5.92184	-0.447424	1.01349
H	3.96897	-1.34784	0.608334
H	4.23187	0.123095	-1.71258
H	7.66401	0.76234	0.659516
H	6.1507	-0.850002	1.9552
