18
  This energy is -0.9447 and Call times are: 197140
C	-0.466721	-1.00852	0.226828
C	-1.18907	0.148437	0.232327
C	-0.265416	1.18762	-0.0949287
C	0.939821	0.573945	-0.271519
O	0.835338	-0.767321	-0.0789105
H	-0.758628	-2.05361	0.421373
H	-2.26445	0.258993	0.445454
H	-0.482273	2.26408	-0.185983
H	1.93308	0.974779	-0.532318
C	4.66471	-0.42964	-1.07011
C	4.74284	0.899231	-0.71075
N	5.03272	1.03302	0.606285
C	5.13404	-0.208137	1.06224
N	4.92063	-1.12608	0.0899124
H	4.45218	-0.912873	-2.03699
H	4.59525	1.76386	-1.37819
H	5.36264	-0.501483	2.09951
H	4.94541	-2.16952	0.198942
