18
  This energy is -2.6003 and Call times are: 160667
C	-0.438117	-1.04454	-0.0582709
C	0.153223	-0.562521	1.07237
C	0.573419	0.765895	0.757947
C	0.201762	0.978386	-0.537078
O	-0.417325	-0.116801	-1.05119
H	-0.905642	-2.01775	-0.280817
H	0.280732	-1.08955	2.03158
H	1.0915	1.47361	1.4249
H	0.318899	1.85353	-1.19711
C	4.21404	0.341019	1.12632
C	5.09758	0.717018	0.136809
N	4.78411	0.133751	-1.04558
C	3.7102	-0.601295	-0.790563
N	3.32737	-0.509892	0.505076
H	4.15547	0.609786	2.19303
H	5.95561	1.39871	0.25486
H	3.16435	-1.22576	-1.51604
H	2.51071	-0.994832	0.951343
