18
  This energy is -2.5637 and Call times are: 211799
C	0.423164	-0.926159	-0.499563
C	0.327509	-0.806418	0.855755
C	-0.245727	0.479742	1.09515
C	-0.449765	1.03242	-0.135009
O	-0.0469689	0.187617	-1.12044
H	0.802248	-1.74218	-1.13648
H	0.630249	-1.54927	1.61114
H	-0.475806	0.932362	2.07305
H	-0.868283	2.00596	-0.438826
C	3.78177	-0.848749	0.531515
C	5.14391	-0.826686	0.318852
N	5.51983	0.30559	-0.323914
C	4.39517	0.983383	-0.5093
N	3.31925	0.3293	-0.0111336
H	3.13055	-1.59452	1.0145
H	5.86218	-1.60748	0.617691
H	4.30264	1.96365	-1.00403
H	2.32262	0.657121	-0.033925
