18
  This energy is -0.816 and Call times are: 67662
C	0.151491	0.856355	-0.728085
C	0.538888	-0.42039	-1.01132
C	0.18525	-1.19916	0.132614
C	-0.387032	-0.329563	1.0139
O	-0.415887	0.930139	0.504656
H	0.222928	1.78862	-1.31206
H	1.02492	-0.777907	-1.9333
H	0.342581	-2.28054	0.273908
H	-0.807649	-0.480878	2.02159
C	6.27938	0.636401	0.144545
C	5.8543	-0.417171	0.925849
N	4.681	-0.920376	0.471247
C	4.37935	-0.181787	-0.588052
N	5.31208	0.770499	-0.826292
H	7.17201	1.27879	0.208566
H	6.37319	-0.82324	1.80943
H	3.48766	-0.295417	-1.2254
H	5.30057	1.47647	-1.60265
