18
  This energy is -1.6626 and Call times are: 59176
C	0.433272	0.612697	-0.850458
C	0.890471	0.715284	0.430487
C	0.108127	-0.199566	1.19932
C	-0.758087	-0.780445	0.320329
O	-0.573514	-0.296187	-0.93603
H	0.736786	1.12482	-1.77828
H	1.69767	1.36955	0.797178
H	0.18814	-0.395642	2.28064
H	-1.54313	-1.54125	0.46226
C	3.88495	-1.00205	0.0519523
C	4.57633	-0.510892	-1.0352
N	5.17163	0.670814	-0.742458
C	4.85079	0.911832	0.521501
N	4.07602	-0.0675359	1.04511
H	3.29034	-1.91985	0.184717
H	4.65627	-0.988015	-2.02556
H	5.15645	1.79046	1.11211
H	3.69371	-0.107383	2.02159
