18
  This energy is -0.676 and Call times are: 80060
C	-1.01861	-0.279007	-0.413504
C	-0.594064	1.01441	-0.328563
C	0.717399	0.959268	0.23459
C	0.978495	-0.362972	0.444071
O	-0.070833	-1.13352	0.0539707
H	-1.96073	-0.716501	-0.782633
H	-1.14877	1.91679	-0.632032
H	1.38168	1.8104	0.454568
H	1.86114	-0.877187	0.858514
C	6.49035	0.796534	0.354926
C	6.12256	0.517776	-0.944369
N	5.18398	-0.458797	-0.987698
C	4.97031	-0.784639	0.279897
N	5.73403	-0.0558708	1.12796
H	7.21267	1.51713	0.770295
H	6.51763	1.00381	-1.85131
H	4.26556	-1.54997	0.642976
H	5.74747	-0.126684	2.17489
