18
  This energy is -1.1875 and Call times are: 171621
C	0.330048	-0.987628	0.44951
C	-0.466374	-0.91793	-0.655582
C	-0.659386	0.474006	-0.911272
C	0.0361283	1.13202	0.0601421
O	0.646546	0.254955	0.899875
H	0.735748	-1.84897	1.00516
H	-0.876765	-1.76203	-1.23279
H	-1.24918	0.9237	-1.72614
H	0.173271	2.20742	0.260028
C	4.30041	0.123238	1.15329
C	4.85044	-0.971694	0.521042
N	4.93503	-0.772074	-0.816682
C	4.43937	0.442081	-1.01358
N	4.0429	1.02326	0.143416
H	4.08131	0.319115	2.21497
H	5.18776	-1.90214	1.00616
H	4.34342	0.953904	-1.98469
H	3.61994	1.97765	0.250726
