18
  This energy is -1.0099 and Call times are: 62513
C	-0.927255	0.622388	-0.198071
C	-0.0775771	0.240173	-1.19423
C	0.953211	-0.517921	-0.559496
C	0.642437	-0.532045	0.768507
O	-0.502893	0.159516	1.0072
H	-1.85549	1.21676	-0.216832
H	-0.167652	0.469112	-2.26827
H	1.82125	-0.993624	-1.04356
H	1.14844	-0.992486	1.63292
C	5.6704	0.275766	1.04296
C	4.52136	0.799236	0.489035
N	4.27288	0.254413	-0.726669
C	5.264	-0.603786	-0.926173
N	6.1328	-0.627593	0.112198
H	6.17494	0.475501	2.00165
H	3.86718	1.56027	0.944798
H	5.40188	-1.24024	-1.81508
H	6.99447	-1.22112	0.192873
