18
  This energy is -1.1024 and Call times are: 139700
C	-0.125902	1.08554	0.303553
C	-1.17247	0.318602	-0.117
C	-0.623499	-0.96833	-0.404321
C	0.710079	-0.874206	-0.133982
O	1.03146	0.373151	0.299405
H	-0.0748141	2.13751	0.629133
H	-2.22543	0.628072	-0.215054
H	-1.16618	-1.85505	-0.769438
H	1.52501	-1.61287	-0.208181
C	4.77322	-0.936406	0.339682
C	6.11563	-0.908664	0.0261397
N	6.50961	0.339417	-0.325411
C	5.41577	1.08312	-0.230322
N	4.34215	0.359974	0.167157
H	4.11609	-1.75947	0.662599
H	6.80695	-1.76685	0.0472859
H	5.34507	2.16259	-0.440056
H	3.36713	0.718531	0.315622
