18
  This energy is -1.1641 and Call times are: 200430
C	0.177134	-1.02692	-0.447726
C	1.07949	-0.42512	0.379297
C	0.507803	0.835865	0.730311
C	-0.693433	0.893317	0.0868023
O	-0.911613	-0.235899	-0.63727
H	0.192159	-2.00322	-0.959454
H	2.05029	-0.828694	0.709081
H	0.947232	1.60437	1.38636
H	-1.47385	1.67155	0.0634756
C	5.70148	0.293788	0.898171
C	5.61125	-0.939208	0.28766
N	4.69944	-0.922552	-0.714763
C	4.22582	0.316067	-0.726085
N	4.79847	1.08819	0.227581
H	6.32362	0.650244	1.73448
H	6.18772	-1.84052	0.552525
H	3.45879	0.710983	-1.4116
H	4.59361	2.09935	0.419566
