18
  This energy is -0.7556 and Call times are: 189929
C	-0.718046	0.84897	0.223746
C	0.457332	1.04237	-0.440677
C	1.07342	-0.243312	-0.527693
C	0.220137	-1.10888	0.0912371
O	-0.87914	-0.458916	0.556154
H	-1.51572	1.55077	0.517757
H	0.851008	1.99485	-0.830412
H	2.03974	-0.485864	-0.998308
H	0.279684	-2.19599	0.264175
C	5.05884	-0.468183	-0.785223
C	4.94924	-0.518227	0.588322
N	5.98096	0.127099	1.18466
C	6.72777	0.575779	0.18487
N	6.21399	0.242684	-1.02288
H	4.41794	-0.874572	-1.58374
H	4.1442	-1.00841	1.15972
H	7.66099	1.15379	0.280975
H	6.61853	0.480615	-1.9615
