18
  This energy is -0.5263 and Call times are: 24093
C	-0.512862	-0.633124	-0.789004
C	-0.820964	0.681088	-0.593317
C	0.023045	1.12651	0.4694
C	0.772402	0.0451655	0.82931
O	0.458261	-1.03814	0.0711676
H	-0.907661	-1.37882	-1.49846
H	-1.56767	1.27706	-1.14226
H	0.0608371	2.1365	0.908247
H	1.55196	-0.0807689	1.59852
C	4.91568	0.0878641	0.449013
C	5.45616	0.8512	-0.564071
N	6.73188	0.478696	-0.829166
C	6.98188	-0.511965	0.0162449
N	5.91809	-0.785227	0.808259
H	3.92181	0.103642	0.923894
H	4.94846	1.66405	-1.10847
H	7.92725	-1.0722	0.0976964
H	5.86672	-1.52184	1.55392
