18
  This energy is -1.1821 and Call times are: 70490
C	0.831918	0.721478	-0.27163
C	-0.467624	0.938973	-0.624136
C	-1.20332	-0.172341	-0.110475
C	-0.288408	-0.970841	0.510578
O	0.959657	-0.440292	0.421901
H	1.74661	1.30978	-0.45187
H	-0.86799	1.79601	-1.18919
H	-2.28751	-0.348261	-0.198087
H	-0.397367	-1.92882	1.04505
C	4.76122	0.268189	-1.11576
C	4.56259	1.15267	-0.0768352
N	4.27808	0.497648	1.0749
C	4.30012	-0.788308	0.75171
N	4.58686	-0.978647	-0.557923
H	5.00614	0.432316	-2.17719
H	4.61948	2.25173	-0.137664
H	4.11337	-1.63221	1.43522
H	4.66204	-1.90041	-1.05387
