18
  This energy is -1.7573 and Call times are: 91125
C	0.318264	-0.39747	-1.01347
C	0.622178	0.864849	-0.595667
C	0.0587386	0.990558	0.710798
C	-0.539746	-0.206039	0.976024
O	-0.391064	-1.0656	-0.0661219
H	0.54608	-0.932265	-1.95014
H	1.18652	1.63065	-1.1517
H	0.099363	1.8732	1.36912
H	-1.0959	-0.565924	1.85717
C	5.06968	0.508643	-0.608299
C	4.43283	1.01445	0.50513
N	3.47744	0.16283	0.950642
C	3.52143	-0.867386	0.116769
N	4.4652	-0.706558	-0.840843
H	5.88313	0.913931	-1.23086
H	4.6456	1.97862	0.99498
H	2.88504	-1.76584	0.161639
H	4.69304	-1.37938	-1.61328
