18
  This energy is -0.9024 and Call times are: 10940
C	0.510701	-0.991324	-0.207031
C	0.709148	0.109582	-0.987416
C	-0.0931622	1.14382	-0.415786
C	-0.711063	0.583628	0.663452
O	-0.353772	-0.719855	0.805886
H	0.920354	-2.01304	-0.266402
H	1.35566	0.185717	-1.87642
H	-0.192396	2.18128	-0.773463
H	-1.41774	1.00095	1.39945
C	5.02381	-0.164307	-1.13217
C	4.32671	0.588711	-0.211213
N	4.93	0.558242	1.00189
C	5.9973	-0.210754	0.834148
N	6.09811	-0.670835	-0.4354
H	4.83763	-0.368752	-2.19851
H	3.39927	1.15345	-0.400336
H	6.73829	-0.469632	1.60755
H	6.85117	-1.29457	-0.81635
