18
  This energy is -1.0813 and Call times are: 208935
C	0.981891	0.54271	0.166605
C	0.774597	-0.73798	0.587599
C	-0.560675	-1.06553	0.200458
C	-1.05147	0.0439179	-0.422937
O	-0.12286	1.03579	-0.452597
H	1.85926	1.20541	0.245938
H	1.49019	-1.38692	1.1176
H	-1.08621	-2.01892	0.370613
H	-2.032	0.25087	-0.882273
C	6.28612	0.535958	-0.354139
C	5.51411	-0.342943	-1.08399
N	4.44745	-0.769523	-0.365117
C	4.55731	-0.157588	0.806246
N	5.64966	0.640663	0.862474
H	7.21248	1.07629	-0.606016
H	5.70765	-0.676903	-2.11639
H	3.86562	-0.258309	1.65809
H	5.9538	1.22752	1.67756
