18
  This energy is -0.6512 and Call times are: 63255
C	0.700855	-0.579055	0.678159
C	0.180439	-1.11484	-0.463102
C	-0.641546	-0.0957491	-1.03399
C	-0.55087	0.972824	-0.191197
O	0.264823	0.695265	0.859811
H	1.38388	-0.996163	1.43628
H	0.357616	-2.12623	-0.862833
H	-1.2284	-0.159907	-1.96436
H	-1.01155	1.97368	-0.227415
C	6.52368	-0.62116	-0.566389
C	6.63994	0.668239	-0.0919616
N	5.4952	1.07234	0.510347
C	4.67191	0.0375771	0.409957
N	5.24536	-1.00817	-0.231259
H	7.23639	-1.26911	-1.10094
H	7.5293	1.31418	-0.173474
H	3.63811	-0.00793821	0.788657
H	4.80088	-1.93683	-0.434411
