18
  This energy is -1.8322 and Call times are: 148997
C	0.265729	0.809558	0.748602
C	-0.551029	-0.236547	1.06316
C	-0.644634	-1.02939	-0.121225
C	0.123186	-0.397787	-1.05498
O	0.686693	0.727051	-0.540969
H	0.619125	1.66636	1.34548
H	-1.03867	-0.430439	2.03202
H	-1.21928	-1.96022	-0.253231
H	0.34634	-0.644148	-2.10606
C	3.85408	1.01377	0.596032
C	3.74325	0.850406	-0.768582
N	3.84186	-0.456332	-1.11387
C	4.01322	-1.10118	0.0321819
N	4.02772	-0.258906	1.09235
H	3.82272	1.91554	1.22799
H	3.5939	1.65201	-1.51018
H	4.13338	-2.18994	0.152179
H	4.14827	-0.524716	2.10035
