18
  This energy is -1.0608 and Call times are: 37838
C	-0.665743	0.685491	0.610974
C	-0.873862	0.459231	-0.717886
C	0.154217	-0.444264	-1.12638
C	0.899823	-0.690359	-0.0110875
O	0.413307	-0.00859635	1.0592
H	-1.20747	1.31044	1.33982
H	-1.67134	0.885777	-1.34731
H	0.312327	-0.85751	-2.1355
H	1.78857	-1.32253	0.149376
C	4.88331	1.17677	0.00479813
C	4.20041	0.343007	-0.855222
N	4.45053	-0.959057	-0.574898
C	5.28542	-0.933156	0.45511
N	5.57688	0.331413	0.841767
H	4.92347	2.27521	0.0780042
H	3.53172	0.657635	-1.67296
H	5.71414	-1.81101	0.964812
H	6.21048	0.614046	1.62912
