18
  This energy is -1.2206 and Call times are: 31893
C	0.859406	-0.582028	-0.457237
C	0.0460514	-1.11221	0.500746
C	-0.900212	-0.090831	0.819302
C	-0.581572	0.973343	0.027864
O	0.490561	0.690933	-0.75813
H	1.72366	-1.00255	-0.997121
H	0.106384	-2.12132	0.939099
H	-1.71942	-0.150572	1.55375
H	-1.03395	1.97398	-0.0687806
C	4.08117	0.460384	0.367593
C	4.56762	0.451639	-0.922536
N	5.77342	-0.163612	-0.985929
C	6.03403	-0.535139	0.260135
N	5.04402	-0.181783	1.11373
H	3.14905	0.864653	0.79333
H	4.07014	0.878244	-1.80875
H	6.93512	-1.06879	0.602894
H	5.01538	-0.36256	2.14705
