18
  This energy is -0.8575 and Call times are: 135620
C	0.755261	-0.0171992	0.845982
C	-0.572961	0.210006	1.05712
C	-1.18862	0.154696	-0.230523
C	-0.18227	-0.101427	-1.11485
O	1.01171	-0.209456	-0.474731
H	1.60829	-0.0666492	1.5425
H	-1.06938	0.397723	2.02274
H	-2.25729	0.291001	-0.461753
H	-0.185866	-0.227837	-2.20996
C	6.29164	0.746511	0.591141
C	6.58906	0.102749	-0.591338
N	5.56121	-0.68495	-0.990788
C	4.62968	-0.530443	-0.0596581
N	5.02222	0.322912	0.915681
H	6.87406	1.45254	1.2042
H	7.52689	0.192535	-1.16342
H	3.64188	-1.01851	-0.0430708
H	4.46561	0.607611	1.75853
