18
  This energy is -1.4567 and Call times are: 119218
C	-0.220542	-0.425695	-1.02788
C	0.738251	0.521883	-0.820068
C	0.71705	0.798864	0.580984
C	-0.252825	-0.00390534	1.10565
O	-0.835808	-0.758531	0.137311
H	-0.556667	-0.936824	-1.94495
H	1.39459	0.979869	-1.57741
H	1.35368	1.5143	1.12591
H	-0.618449	-0.129642	2.13801
C	5.05814	0.843231	0.738778
C	5.35071	-0.502077	0.814234
N	4.77228	-1.18572	-0.202899
C	4.12333	-0.268015	-0.90668
N	4.26488	0.971194	-0.379503
H	5.3486	1.69033	1.38033
H	5.96881	-0.991667	1.58437
H	3.52881	-0.448939	-1.81665
H	3.84948	1.8601	-0.751727
