18
  This energy is -0.8499 and Call times are: 150237
C	0.892405	-0.630403	0.304312
C	0.57408	-0.397133	-1.0013
C	-0.593766	0.424887	-0.978162
C	-0.886002	0.621375	0.33955
O	0.0113061	-0.0159396	1.13685
H	1.70962	-1.20897	0.765464
H	1.10809	-0.766835	-1.89139
H	-1.14526	0.819246	-1.84674
H	-1.69373	1.18656	0.832898
C	6.36426	-0.054549	-0.672544
C	5.10985	-0.534693	-0.984071
N	4.23339	-0.301349	0.0228432
C	4.94138	0.321188	0.955486
N	6.23198	0.493617	0.583722
H	7.31017	-0.0638439	-1.23709
H	4.82151	-1.0453	-1.91734
H	4.56432	0.672738	1.92938
H	6.98783	0.956661	1.14545
