18
  This energy is -1.2887 and Call times are: 89487
C	-0.832255	-0.0173568	0.770358
C	-0.238956	1.14093	0.362024
C	0.74583	0.758097	-0.599096
C	0.667384	-0.600342	-0.693245
O	-0.291107	-1.09065	0.136155
H	-1.63958	-0.208875	1.49617
H	-0.471464	2.16245	0.703388
H	1.42867	1.42377	-1.15109
H	1.23029	-1.32454	-1.30474
C	5.27736	0.327648	0.971798
C	4.74017	-0.91443	0.707592
N	4.14405	-0.94021	-0.509164
C	4.3108	0.281229	-0.997941
N	4.9883	1.0831	-0.142617
H	5.82657	0.714515	1.84486
H	4.77203	-1.79244	1.37313
H	3.95687	0.641953	-1.97715
H	5.24457	2.08871	-0.298662
