18
  This energy is -1.0955 and Call times are: 174564
C	0.722671	-0.298772	-0.821513
C	0.0499191	0.887633	-0.836363
C	-0.749731	0.898511	0.347089
C	-0.495043	-0.282208	0.980659
O	0.401916	-1.02582	0.281
H	1.44771	-0.73698	-1.52688
H	0.110678	1.67603	-1.60372
H	-1.43224	1.69702	0.679745
H	-0.882634	-0.705282	1.92195
C	4.95309	1.08621	0.283857
C	4.50494	0.657079	-0.947466
N	4.18027	-0.658306	-0.918033
C	4.42607	-1.04374	0.326815
N	4.89367	-0.0281205	1.09066
H	5.29855	2.0728	0.631474
H	4.41005	1.27302	-1.85656
H	4.2813	-2.05804	0.732354
H	5.16018	-0.0797193	2.10435
