18
  This energy is -0.7876 and Call times are: 91831
C	-0.453668	0.181167	-1.0236
C	0.4904	-0.778107	-0.802462
C	0.808736	-0.700265	0.587761
C	0.0310971	0.299705	1.09344
O	-0.746119	0.849058	0.123307
H	-0.988357	0.483448	-1.93902
H	0.919566	-1.47102	-1.54394
H	1.53379	-1.32082	1.13849
H	-0.0606588	0.710296	2.11238
C	4.57696	-0.24902	-0.248702
C	5.61968	-1.14509	-0.14419
N	6.77993	-0.511941	0.154899
C	6.45821	0.77204	0.235626
N	5.14136	0.982089	0.000299814
H	3.50885	-0.395416	-0.475096
H	5.5556	-2.23711	-0.279235
H	7.14797	1.60045	0.464115
H	4.64492	1.90662	0.00637175
