18
  This energy is -1.1554 and Call times are: 202127
C	0.315461	-0.449976	0.992173
C	-0.80657	0.314287	0.860556
C	-0.864043	0.690621	-0.516102
C	0.227941	0.123109	-1.10421
O	0.959466	-0.577138	-0.197827
H	0.75823	-0.954075	1.86687
H	-1.52199	0.585795	1.65337
H	-1.63288	1.31193	-1.00288
H	0.590743	0.14264	-2.145
C	4.10755	0.949975	-0.0561859
C	5.28384	0.82411	0.652094
N	5.82138	-0.409473	0.491366
C	4.98176	-1.04647	-0.313564
N	3.93229	-0.269317	-0.67165
H	3.40619	1.79281	-0.162264
H	5.75428	1.60129	1.27621
H	5.08747	-2.08302	-0.672194
H	3.13667	-0.54338	-1.29866
