18
  This energy is -0.9172 and Call times are: 55219
C	-0.532689	0.558687	-0.830971
C	0.244171	1.19224	0.0939452
C	0.734699	0.167949	0.960156
C	0.214291	-1.00112	0.488102
O	-0.562184	-0.781185	-0.605391
H	-1.10996	0.943346	-1.68774
H	0.451039	2.27251	0.159637
H	1.39751	0.296145	1.83098
H	0.319546	-2.04166	0.836581
C	6.26744	-0.0228094	-1.04926
C	5.80714	0.585543	0.0992954
N	6.67571	0.41332	1.12518
C	7.67105	-0.299165	0.615001
N	7.47179	-0.587413	-0.692975
H	5.83753	-0.091613	-2.06118
H	4.86389	1.14565	0.206115
H	8.57023	-0.636987	1.15498
H	8.11265	-1.1364	-1.31681
