18
  This energy is -1.1549 and Call times are: 147645
C	-0.427544	0.810929	0.667833
C	-0.973182	-0.436904	0.593229
C	-0.167922	-1.1607	-0.338326
C	0.798712	-0.291275	-0.750746
O	0.655359	0.917536	-0.146396
H	-0.712643	1.69966	1.25446
H	-1.85433	-0.810221	1.1394
H	-0.300591	-2.20678	-0.658028
H	1.63405	-0.409636	-1.46029
C	4.80544	0.60978	0.876742
C	6.08755	0.103746	0.841116
N	6.3241	-0.546285	-0.324224
C	5.19303	-0.443903	-1.00894
N	4.24664	0.244325	-0.327569
H	4.26906	1.1849	1.64814
H	6.84614	0.196034	1.63539
H	5.00369	-0.854453	-2.01384
H	3.27274	0.458691	-0.654422
