18
  This energy is -1.3323 and Call times are: 21078
C	0.83738	0.0439426	0.763718
C	1.00781	0.438898	-0.53063
C	-0.253163	0.236847	-1.17034
C	-1.08285	-0.263743	-0.210441
O	-0.433411	-0.388093	0.976902
H	1.5327	0.0215876	1.61887
H	1.92908	0.832984	-0.988944
H	-0.50396	0.443127	-2.22326
H	-2.14205	-0.567233	-0.245383
C	4.34037	-0.894902	-0.386173
C	4.49284	-0.483044	0.920835
N	5.3277	0.581229	1.00355
C	5.69177	0.828675	-0.247391
N	5.12316	-0.0340375	-1.12261
H	3.74991	-1.71241	-0.829551
H	4.0154	-0.934755	1.80563
H	6.37253	1.6294	-0.578516
H	5.25374	-0.0450412	-2.1638
