18
  This energy is -2.8181 and Call times are: 163800
C	-0.321361	0.849409	-0.679435
C	0.160263	1.06268	0.578709
C	0.451627	-0.230625	1.11029
C	0.122331	-1.12005	0.130054
O	-0.35142	-0.477868	-0.970023
H	-0.671591	1.54856	-1.45647
H	0.296669	2.03337	1.08196
H	0.858855	-0.462063	2.10763
H	0.177507	-2.22042	0.0926536
C	3.65156	-0.2286	-1.0159
C	4.88589	-0.697038	-0.618207
N	5.21071	-0.233895	0.613256
C	4.18181	0.519	0.978141
N	3.2158	0.554099	0.0298902
H	3.07178	-0.391405	-1.93833
H	5.54788	-1.3609	-1.19778
H	4.08417	1.06727	1.92898
H	2.30786	1.07778	0.0815075
