18
  This energy is -1.1606 and Call times are: 107320
C	0.645039	-0.864894	-0.349691
C	-0.711435	-0.86104	-0.492298
C	-1.15907	0.378046	0.0594338
C	-0.0366189	1.022	0.49049
O	1.07427	0.277393	0.248602
H	1.40744	-1.61048	-0.629168
H	-1.33433	-1.65146	-0.941002
H	-2.19803	0.739347	0.12356
H	0.102943	2.00048	0.978693
C	4.45641	-0.680512	-0.959216
C	4.98564	-1.01495	0.269283
N	4.8677	0.0103031	1.14761
C	4.26759	0.977103	0.466591
N	3.9988	0.609493	-0.808637
H	4.37574	-1.25021	-1.89862
H	5.45046	-1.97765	0.537609
H	4.0015	1.97405	0.853271
H	3.53096	1.19551	-1.54277
