18
  This energy is -1.1676 and Call times are: 188835
C	1.00078	0.357275	0.396488
C	0.751283	-0.954629	0.118934
C	-0.59622	-1.00523	-0.352013
C	-1.05121	0.280212	-0.320675
O	-0.0890557	1.12559	0.133861
H	1.90085	0.865005	0.780322
H	1.44641	-1.80173	0.234266
H	-1.15358	-1.89938	-0.674423
H	-2.02606	0.71753	-0.592117
C	5.84553	0.90665	-0.0851895
C	5.58929	0.148726	1.03777
N	4.67368	-0.815928	0.777713
C	4.3631	-0.657054	-0.501709
N	5.04313	0.368699	-1.06649
H	6.51962	1.76222	-0.249962
H	6.04866	0.280659	2.03096
H	3.64398	-1.26417	-1.07486
H	4.97258	0.692501	-2.0622
