18
  This energy is -0.8879 and Call times are: 108357
C	0.831955	0.76133	0.120953
C	0.882801	-0.234541	-0.809655
C	-0.328298	-0.975895	-0.655544
C	-1.01232	-0.36761	0.355633
O	-0.318462	0.695177	0.841493
H	1.54083	1.56893	0.366999
H	1.69198	-0.427707	-1.53216
H	-0.644826	-1.85814	-1.2348
H	-1.98857	-0.591534	0.816109
C	5.90671	0.225757	1.03797
C	6.09327	0.915357	-0.141351
N	5.3507	0.382287	-1.14182
C	4.70591	-0.634149	-0.585278
N	5.00745	-0.769903	0.727824
H	6.33591	0.368326	2.04245
H	6.75037	1.78799	-0.288252
H	4.00101	-1.31161	-1.09361
H	4.62843	-1.4954	1.38453
