18
  This energy is -0.9912 and Call times are: 140405
C	0.590242	-0.785324	-0.566817
C	-0.612845	-1.05548	0.0162526
C	-1.03588	0.165938	0.623944
C	-0.0539601	1.07467	0.35858
O	0.946895	0.510884	-0.367677
H	1.28206	-1.4206	-1.14394
H	-1.14865	-2.0183	0.0182232
H	-1.96489	0.338428	1.19076
H	0.0492429	2.13888	0.626999
C	5.59655	-0.410945	-0.855009
C	5.56719	-0.825923	0.459554
N	4.64171	-0.135768	1.16926
C	4.09899	0.704169	0.298296
N	4.64079	0.577048	-0.936161
H	6.20949	-0.737879	-1.70997
H	6.19721	-1.61095	0.908622
H	3.30125	1.43384	0.511428
H	4.38208	1.12644	-1.79202
