18
  This energy is -0.7807 and Call times are: 141338
C	-0.930463	-0.126143	-0.636182
C	-0.160958	-1.18391	-0.249693
C	0.902652	-0.630647	0.52668
C	0.689211	0.716364	0.546086
O	-0.42597	1.04213	-0.159079
H	-1.84924	-0.0735563	-1.24309
H	-0.325786	-2.2471	-0.487466
H	1.72644	-1.1796	1.01054
H	1.25034	1.53876	1.01943
C	5.13194	-0.576337	-0.990491
C	4.71932	-0.890351	0.287118
N	5.21683	-0.0117856	1.19106
C	5.93536	0.844011	0.476953
N	5.91565	0.546381	-0.843886
H	4.93007	-1.05635	-1.96125
H	4.07156	-1.7351	0.572851
H	6.49637	1.70678	0.870814
H	6.40428	1.07093	-1.61027
