18
  This energy is -1.2208 and Call times are: 134152
C	-0.217462	0.386312	1.04397
C	-1.20591	-0.00363754	0.18882
C	-0.54608	-0.420425	-1.00744
C	0.787334	-0.248377	-0.777699
O	1.0062	0.243547	0.470147
H	-0.254101	0.778514	2.07358
H	-2.29085	0.00168386	0.381125
H	-1.01771	-0.802505	-1.92704
H	1.66878	-0.436094	-1.41257
C	4.42801	1.14462	-0.0308559
C	4.9484	0.446268	1.03809
N	5.14009	-0.857781	0.723088
C	4.74013	-0.968003	-0.53648
N	4.30192	0.211859	-1.03596
H	4.14784	2.20402	-0.143666
H	5.18898	0.859989	2.03096
H	4.74669	-1.88936	-1.14087
H	3.93585	0.383398	-2.00438
