18
  This energy is -0.5502 and Call times are: 16641
C	0.5805	-0.476758	-0.849778
C	-0.77851	-0.362091	-0.867583
C	-1.13269	0.281317	0.357449
C	0.0411568	0.503031	1.01571
O	1.09764	0.0463902	0.29298
H	1.28769	-0.904903	-1.57904
H	-1.46291	-0.696996	-1.66353
H	-2.14629	0.544456	0.700163
H	0.255547	0.970125	1.99096
C	6.05668	-0.0352519	-0.976021
C	4.71189	-0.32162	-0.87267
N	4.27856	-0.1788	0.403392
C	5.35044	0.19475	1.08907
N	6.44782	0.295527	0.302175
H	6.74022	-0.0431782	-1.83988
H	4.04655	-0.628726	-1.69599
H	5.38757	0.407603	2.1696
H	7.41275	0.572811	0.607583
