18
  This energy is -0.4837 and Call times are: 183832
C	-0.832866	0.737922	0.219559
C	0.418134	0.870379	0.746655
C	1.17228	-0.234586	0.246217
C	0.315551	-0.944727	-0.542511
O	-0.913404	-0.365148	-0.570226
H	-1.74097	1.35336	0.328332
H	0.774151	1.66634	1.42029
H	2.22927	-0.465679	0.454702
H	0.45676	-1.86674	-1.13005
C	7.38094	-0.863433	0.17235
C	7.65652	0.453938	-0.127204
N	6.51605	1.17402	-0.258739
C	5.53667	0.30667	-0.0416101
N	6.00672	-0.935433	0.222623
H	8.0434	-1.726	0.347463
H	8.65784	0.897731	-0.250778
H	4.45743	0.527981	-0.0638588
H	5.43354	-1.79042	0.426873
