18
  This energy is -1.0182 and Call times are: 10541
C	0.795262	0.283614	0.757313
C	-0.504164	0.679745	0.879576
C	-1.18733	0.13354	-0.249611
C	-0.245068	-0.548152	-0.962222
O	0.971457	-0.467086	-0.361801
H	1.67836	0.467526	1.391
H	-0.938071	1.29488	1.68421
H	-2.25623	0.240977	-0.494549
H	-0.312526	-1.12423	-1.89968
C	5.35324	-0.99887	-0.620095
C	6.25302	0.045336	-0.654351
N	5.88151	1.03836	0.189685
C	4.75554	0.611818	0.745446
N	4.39523	-0.611434	0.290009
H	5.32772	-1.95824	-1.16091
H	7.16362	0.0999934	-1.27296
H	4.15407	1.15534	1.49181
H	3.54758	-1.16017	0.575749
