18
  This energy is -1.2653 and Call times are: 34022
C	-0.9149	0.221456	-0.632706
C	-0.794236	-0.921209	0.10223
C	0.475451	-0.836596	0.750961
C	1.01859	0.350306	0.355188
O	0.183084	1.00954	-0.490004
H	-1.72136	0.586398	-1.28973
H	-1.52593	-1.7414	0.179744
H	0.923921	-1.57814	1.43147
H	1.97877	0.83298	0.600805
C	5.41643	0.528095	0.852187
C	4.71443	-0.654598	0.950085
N	4.12081	-0.969323	-0.226807
C	4.45328	0.0143816	-1.05168
N	5.23383	0.94196	-0.448413
H	6.01311	1.08591	1.59135
H	4.62564	-1.28645	1.84882
H	4.15236	0.104894	-2.10785
H	5.62532	1.81086	-0.887743
