18
  This energy is -0.9626 and Call times are: 168411
C	-0.464794	-0.895382	-0.518324
C	-0.73924	0.387786	-0.890524
C	0.0239813	1.22027	-0.0161189
C	0.697447	0.372329	0.813228
O	0.410788	-0.923537	0.520703
H	-0.823319	-1.86224	-0.908056
H	-1.41168	0.715234	-1.69966
H	0.0609475	2.3215	-0.0124971
H	1.40087	0.563783	1.64014
C	4.73181	0.933549	0.542561
C	4.10995	0.109863	-0.37176
N	4.94596	-0.868982	-0.795396
C	6.08213	-0.653365	-0.146355
N	6.00368	0.422095	0.672684
H	4.37128	1.81797	1.09152
H	3.07304	0.204334	-0.733348
H	7.00277	-1.25256	-0.233582
H	6.76642	0.795222	1.28934
