18
  This energy is -0.7755 and Call times are: 116410
C	1.09672	0.182868	0.223975
C	0.257843	1.1793	-0.180735
C	-1.0198	0.566272	-0.359502
C	-0.848879	-0.750651	-0.0482523
O	0.437604	-1.00251	0.310269
H	2.16928	0.188493	0.478595
H	0.513142	2.23963	-0.337642
H	-1.95205	1.0568	-0.682571
H	-1.55403	-1.59799	-0.0423692
C	5.90993	-0.957844	-0.547342
C	4.97118	-0.0689546	-1.02668
N	4.73378	0.92077	-0.131923
C	5.52225	0.64692	0.898582
N	6.25149	-0.476019	0.696591
H	6.34459	-1.8688	-0.988678
H	4.46093	-0.124037	-2.00211
H	5.60491	1.23549	1.82648
H	6.94496	-0.899027	1.36099
