18
  This energy is -1.2603 and Call times are: 123303
C	0.656122	-0.469035	-0.79744
C	-0.705957	-0.514994	-0.852229
C	-1.16751	0.17388	0.310758
C	-0.0467374	0.579989	0.973565
O	1.07597	0.195909	0.310977
H	1.42892	-0.866042	-1.47598
H	-1.3237	-0.986679	-1.63326
H	-2.21426	0.342499	0.610716
H	0.0838537	1.14148	1.9132
C	5.48301	-0.0775845	-1.13973
C	6.31906	-0.28665	-0.0634083
N	5.66028	-0.112765	1.10804
C	4.42026	0.202974	0.759777
N	4.26275	0.237191	-0.584697
H	5.66402	-0.12882	-2.22515
H	7.3858	-0.559842	-0.111128
H	3.58803	0.419059	1.44893
H	3.37937	0.460887	-1.10514
