18
  This energy is -1.0182 and Call times are: 204037
C	-0.149411	-1.10274	0.219203
C	-0.524791	-0.126573	1.09474
C	-0.178367	1.11137	0.47216
C	0.378127	0.782411	-0.728871
O	0.403837	-0.565587	-0.899903
H	-0.220887	-2.20141	0.274553
H	-0.998152	-0.26443	2.08015
H	-0.329728	2.12417	0.878878
H	0.788667	1.40621	-1.53978
C	5.39231	0.742068	-0.595931
C	4.03089	0.581233	-0.743599
N	3.55526	-0.361529	0.105808
C	4.61758	-0.78395	0.77787
N	5.74941	-0.149042	0.391284
H	6.10841	1.40546	-1.10647
H	3.3833	1.12855	-1.44782
H	4.62297	-1.55619	1.5639
H	6.715	-0.305747	0.771202
