18
  This energy is -0.947 and Call times are: 12599
C	0.987459	-0.00895486	-0.557895
C	0.0152672	0.914303	-0.80852
C	-1.05874	0.60215	0.0798423
C	-0.648048	-0.484303	0.794912
O	0.599286	-0.870929	0.418494
H	1.98623	-0.157408	-1.00024
H	0.0508696	1.73302	-1.54508
H	-2.02142	1.13073	0.169006
H	-1.14365	-1.06709	1.58863
C	5.50642	-1.00125	-0.587465
C	6.70279	-0.324793	-0.47686
N	6.5638	0.794049	0.275061
C	5.28605	0.811622	0.629579
N	4.6063	-0.249659	0.134396
H	5.24074	-1.93321	-1.1113
H	7.66377	-0.623993	-0.92614
H	4.79579	1.57828	1.25095
H	3.58766	-0.459898	0.273802
