18
  This energy is -1.2394 and Call times are: 141242
C	-0.976757	0.00406219	-0.576481
C	-0.498104	1.11287	0.0574
C	0.734284	0.716735	0.661065
C	0.899934	-0.59918	0.342785
O	-0.135642	-1.05078	-0.412629
H	-1.89107	-0.161464	-1.16967
H	-0.965936	2.10974	0.0960109
H	1.41195	1.34539	1.26078
H	1.70036	-1.31589	0.589533
C	5.00647	1.14705	-0.163513
C	5.13939	0.14103	-1.097
N	4.81784	-1.06369	-0.566185
C	4.4867	-0.806025	0.691821
N	4.58422	0.512701	0.983438
H	5.17679	2.23326	-0.231951
H	5.46154	0.262882	-2.144
H	4.16538	-1.54588	1.44256
H	4.37756	0.965618	1.90724
