18
  This energy is -1.1699 and Call times are: 26392
C	0.238784	-0.647328	-0.900194
C	-0.114916	0.664758	-1.01724
C	-0.332878	1.1313	0.315032
C	-0.0931298	0.0631237	1.1286
O	0.257177	-1.03151	0.403293
H	0.498384	-1.40493	-1.65775
H	-0.212542	1.24579	-1.94835
H	-0.633098	2.14598	0.62226
H	-0.136802	-0.0453346	2.22477
C	5.04562	0.777284	0.695139
C	5.30197	-0.574455	0.604421
N	4.48388	-1.16741	-0.298707
C	3.7229	-0.187243	-0.766486
N	4.02289	1.00477	-0.198428
H	5.50334	1.56709	1.31177
H	6.06257	-1.1325	1.17444
H	2.93063	-0.287121	-1.52581
H	3.56386	1.92663	-0.400243
