18
  This energy is -0.907 and Call times are: 145139
C	-0.80682	0.793973	0.0710531
C	0.0726186	0.553444	1.0855
C	0.920201	-0.500615	0.626501
C	0.483885	-0.811157	-0.627918
O	-0.570195	-0.0303403	-0.983237
H	-1.63585	1.51455	-0.0223842
H	0.119744	1.06678	2.05934
H	1.75515	-0.967018	1.1737
H	0.834179	-1.5572	-1.36001
C	4.62655	0.188203	-0.766003
C	4.71019	-0.830145	0.159803
N	5.8551	-0.74329	0.87963
C	6.47936	0.324878	0.4022
N	5.7791	0.921265	-0.591561
H	3.85419	0.434882	-1.51175
H	3.96493	-1.62599	0.321267
H	7.45164	0.71477	0.74409
H	6.06054	1.77872	-1.12712
