18
  This energy is -1.0303 and Call times are: 110089
C	0.074228	-0.683268	-0.90224
C	-1.12274	-0.307996	-0.366702
C	-0.807858	0.539857	0.738789
C	0.553741	0.60785	0.781211
O	1.10878	-0.133162	-0.213697
H	0.32063	-1.32902	-1.76104
H	-2.12671	-0.599034	-0.715184
H	-1.51914	1.03689	1.41785
H	1.23828	1.1418	1.46059
C	4.37685	0.693066	0.476634
C	4.62821	0.510262	-0.8667
N	5.64965	-0.359378	-1.05876
C	6.03052	-0.714723	0.160782
N	5.29376	-0.107227	1.12084
H	3.63512	1.31527	1.00222
H	4.09083	0.990282	-1.70076
H	6.84343	-1.41644	0.407787
H	5.40063	-0.223675	2.15828
