18
  This energy is -1.0257 and Call times are: 122087
C	0.197242	-0.301333	-1.0755
C	-0.661141	-0.989974	-0.269689
C	-0.641869	-0.315389	0.989152
C	0.226589	0.72593	0.841477
O	0.748344	0.749696	-0.413202
H	0.497991	-0.455919	-2.12474
H	-1.24893	-1.88336	-0.535127
H	-1.21174	-0.581757	1.8938
H	0.554154	1.50996	1.54379
C	4.09704	0.754699	0.0137567
C	4.97701	0.536051	-1.02499
N	5.89601	-0.404393	-0.6971
C	5.58734	-0.767788	0.540353
N	4.51004	-0.0975455	1.01341
H	3.23492	1.4338	0.109156
H	4.96525	1.04003	-2.00515
H	6.11701	-1.52017	1.14666
H	4.07271	-0.206372	1.96112
