18
  This energy is -1.0786 and Call times are: 14332
C	-0.786771	0.7286	0.369506
C	0.367425	1.1413	-0.228726
C	1.08954	-0.0489411	-0.548093
C	0.312864	-1.08391	-0.116829
O	-0.836761	-0.627365	0.446142
H	-1.64042	1.29328	0.778981
H	0.679049	2.17972	-0.425384
H	2.07235	-0.116846	-1.0416
H	0.463962	-2.17534	-0.151721
C	5.14091	1.01001	-0.601233
C	4.39962	0.66292	0.508342
N	4.72614	-0.577507	0.945653
C	5.66641	-0.998344	0.110548
N	5.9517	-0.0771009	-0.839985
H	5.14859	1.92322	-1.21729
H	3.63504	1.28531	1.00118
H	6.17975	-1.97261	0.149457
H	6.65629	-0.172746	-1.61178
