18
  This energy is -0.6346 and Call times are: 118205
C	-0.409036	-0.788895	0.704794
C	-0.76017	-0.733127	-0.612008
C	-0.0499231	0.378687	-1.15931
C	0.672535	0.904184	-0.128637
O	0.465253	0.203562	1.0173
H	-0.707841	-1.47693	1.51262
H	-1.45012	-1.40729	-1.14452
H	-0.0797044	0.737947	-2.20053
H	1.36197	1.76313	-0.0823274
C	4.7849	0.570912	-0.169478
C	6.01448	1.1322	0.102984
N	6.96748	0.178468	0.239695
C	6.33154	-0.97012	0.0527567
N	5.01341	-0.786734	-0.197231
H	3.79642	1.02633	-0.3399
H	6.23104	2.20824	0.203367
H	6.78299	-1.97471	0.0878774
H	4.3012	-1.53601	-0.377792
