18
  This energy is -0.7824 and Call times are: 143602
C	-0.53275	0.99847	0.0750788
C	-1.12388	-0.174328	0.443158
C	-0.15172	-1.19351	0.205911
C	0.947665	-0.553551	-0.286202
O	0.732603	0.785577	-0.372773
H	-0.901535	2.0373	0.0836405
H	-2.14235	-0.308298	0.841752
H	-0.266569	-2.2748	0.383985
H	1.93155	-0.93281	-0.607746
C	4.96711	0.484923	0.288243
C	5.1676	-0.624534	-0.505517
N	6.48763	-0.905711	-0.627874
C	7.10371	0.0257688	0.0872586
N	6.23039	0.887961	0.65956
H	4.04561	0.999013	0.604597
H	4.38343	-1.22715	-0.992112
H	8.1926	0.122933	0.225479
H	6.46997	1.70735	1.26986
