18
  This energy is -1.1579 and Call times are: 15293
C	0.872987	-0.621983	-0.37072
C	-0.108429	-0.171037	-1.20369
C	-1.01501	0.562282	-0.378787
C	-0.507564	0.494722	0.885454
O	0.645214	-0.224699	0.90885
H	1.77456	-1.22648	-0.563071
H	-0.186161	-0.338044	-2.29005
H	-1.9354	1.07689	-0.698395
H	-0.867411	0.910562	1.84088
C	4.20637	0.486891	-0.996538
C	4.69998	-0.790813	-0.838511
N	5.06392	-1.01853	0.446868
C	4.79711	0.113595	1.08383
N	4.27849	1.05221	0.257017
H	3.82172	1.0162	-1.88277
H	4.80002	-1.55243	-1.62894
H	4.9621	0.309269	2.15562
H	3.98689	2.02521	0.520658
