18
  This energy is -0.7651 and Call times are: 162298
C	0.441326	0.799625	-0.672483
C	1.09378	-0.36652	-0.399006
C	0.231152	-1.10286	0.469212
C	-0.872286	-0.321678	0.649647
O	-0.760932	0.843893	-0.0403212
H	0.722013	1.66616	-1.29343
H	2.08325	-0.677046	-0.771319
H	0.418819	-2.09781	0.903902
H	-1.79185	-0.479681	1.23674
C	6.97464	0.0611297	-0.0397569
C	6.11738	-0.0927469	-1.10867
N	4.82601	-0.123518	-0.698868
C	4.88193	0.010758	0.619262
N	6.15534	0.125689	1.06513
H	8.07309	0.127061	0.0111529
H	6.40753	-0.182116	-2.16823
H	4.02065	0.0314063	1.30628
H	6.46041	0.241848	2.06248
