18
  This energy is -0.7924 and Call times are: 78082
C	1.1176	0.19172	-0.0249672
C	0.228702	1.11343	0.444814
C	-1.06127	0.514011	0.315254
C	-0.846786	-0.721079	-0.222261
O	0.478161	-0.934671	-0.436522
H	2.21576	0.216359	-0.118085
H	0.458363	2.11496	0.842668
H	-2.03063	0.958387	0.592684
H	-1.54349	-1.53047	-0.495648
C	5.02273	0.949637	0.387346
C	5.97549	0.224415	1.07104
N	6.43292	-0.808864	0.32297
C	5.76646	-0.724978	-0.820456
N	4.90395	0.318842	-0.830922
H	4.44025	1.84026	0.672036
H	6.34104	0.428227	2.09069
H	5.87129	-1.402	-1.68352
H	4.26625	0.595003	-1.61726
