18
  This energy is -0.8715 and Call times are: 23162
C	0.43505	-0.736078	-0.7452
C	0.404755	-0.98569	0.595379
C	-0.208535	0.157869	1.19226
C	-0.498874	1.00534	0.163734
O	-0.112693	0.475434	-1.02667
H	0.814408	-1.33206	-1.59145
H	0.776947	-1.8849	1.1121
H	-0.406392	0.321593	2.26377
H	-0.972849	2.00051	0.147982
C	5.19126	-0.491606	-1.06376
C	4.2739	-0.533255	-0.0352372
N	4.7258	0.140722	1.05015
C	5.91896	0.598746	0.696309
N	6.24497	0.244133	-0.569218
H	5.16954	-0.919201	-2.07877
H	3.29407	-1.03754	-0.0568821
H	6.59592	1.19914	1.32519
H	7.13151	0.483965	-1.07695
