18
  This energy is -0.5195 and Call times are: 71648
C	0.979282	0.556687	0.132316
C	0.636243	-0.512177	0.90706
C	-0.647505	-0.934334	0.444574
C	-0.975619	-0.0861785	-0.571962
O	0.00646772	0.83076	-0.77627
H	1.8751	1.19914	0.128188
H	1.22786	-0.95856	1.72243
H	-1.24912	-1.77311	0.830067
H	-1.86601	-0.0311183	-1.21959
C	5.24081	0.420158	-0.294416
C	5.8138	-0.756788	-0.727573
N	7.04494	-0.928501	-0.187822
C	7.23499	0.137865	0.577272
N	6.17581	0.980953	0.5467
H	4.26637	0.882891	-0.517746
H	5.36093	-1.48512	-1.41988
H	8.13146	0.351277	1.18144
H	6.08429	1.88884	1.06499
