18
  This energy is -0.9964 and Call times are: 206473
C	0.0110525	-0.328488	1.08553
C	-1.14589	-0.185323	0.377462
C	-0.754487	0.235404	-0.930173
C	0.607085	0.312198	-0.905749
O	1.09142	-0.0287627	0.317433
H	0.196935	-0.633262	2.12851
H	-2.17199	-0.358606	0.739652
H	-1.41678	0.453183	-1.78342
H	1.33757	0.592823	-1.68221
C	4.90891	0.967545	0.663815
C	4.22523	-0.218103	0.831051
N	4.57551	-1.1219	-0.116031
C	5.47307	-0.499314	-0.86795
N	5.70841	0.763153	-0.43855
H	4.88391	1.91081	1.23229
H	3.4855	-0.43759	1.61811
H	5.98935	-0.921419	-1.74517
H	6.37324	1.45455	-0.864266
