18
  This energy is -2.1277 and Call times are: 111019
C	0.378881	-0.160509	-1.05692
C	0.689518	-1.00665	-0.0332431
C	0.0367742	-0.478597	1.12227
C	-0.615122	0.643617	0.702696
O	-0.417124	0.853008	-0.625447
H	0.657886	-0.169783	-2.12338
H	1.31552	-1.91185	-0.0864888
H	0.0560534	-0.892972	2.14306
H	-1.24435	1.36908	1.24402
C	4.20913	-1.11058	0.236936
C	4.30919	-0.464856	-0.977217
N	3.86075	0.811035	-0.890507
C	3.48393	0.956283	0.372634
N	3.67401	-0.174302	1.09322
H	4.47208	-2.13591	0.542045
H	4.69692	-0.896734	-1.91423
H	3.06213	1.86933	0.822807
H	3.4554	-0.311499	2.11039
