18
  This energy is -1.1286 and Call times are: 84823
C	0.941459	-0.599697	0.201046
C	0.283987	0.0792678	1.18446
C	-0.83483	0.700359	0.549949
C	-0.762286	0.346107	-0.7652
O	0.31636	-0.447755	-0.996108
H	1.85263	-1.21976	0.224311
H	0.559255	0.13695	2.24983
H	-1.5995	1.33534	1.02553
H	-1.40784	0.590232	-1.6248
C	4.5703	-0.605633	-0.913051
C	5.12216	0.657551	-0.944025
N	5.51511	1.04955	0.292275
C	5.2082	0.0334145	1.08719
N	4.63625	-0.988868	0.407922
H	4.14936	-1.23787	-1.71094
H	5.24383	1.2931	-1.83628
H	5.3805	-0.0145683	2.1745
H	4.30598	-1.89984	0.81079
