18
  This energy is -1.0095 and Call times are: 53132
C	-0.685764	-0.440473	0.788741
C	-0.615965	-0.938591	-0.479084
C	0.342997	-0.131516	-1.16402
C	0.774552	0.788547	-0.254287
O	0.156771	0.614584	0.943668
H	-1.2871	-0.743952	1.66141
H	-1.1829	-1.78905	-0.890674
H	0.667411	-0.231801	-2.21225
H	1.50752	1.60803	-0.334644
C	4.2698	-0.27069	0.185653
C	4.87205	0.952693	0.390035
N	6.18878	0.908228	0.0726052
C	6.40258	-0.338001	-0.327181
N	5.27646	-1.08831	-0.27728
H	3.23076	-0.606128	0.331997
H	4.38007	1.86664	0.76085
H	7.36464	-0.754193	-0.666957
H	5.18721	-2.10012	-0.540997
