18
  This energy is -1.3046 and Call times are: 3524
C	0.858822	-0.484086	0.560792
C	-0.414272	-0.464722	1.0499
C	-1.19786	0.222745	0.0734371
C	-0.33444	0.562794	-0.926182
O	0.925882	0.138972	-0.645158
H	1.79265	-0.904016	0.969283
H	-0.766254	-0.891711	2.00273
H	-2.27819	0.434751	0.118647
H	-0.490899	1.09941	-1.87635
C	4.99971	-1.10661	0.0269607
C	5.16748	-0.142305	0.998097
N	4.57484	1.02203	0.63808
C	4.04144	0.780957	-0.551877
N	4.27013	-0.488498	-0.963914
H	5.33664	-2.15403	-0.0273215
H	5.70553	-0.265834	1.95209
H	3.47304	1.49847	-1.16533
H	3.95224	-0.919715	-1.86627
