18
  This energy is -0.6755 and Call times are: 193399
C	0.433591	0.44995	-0.946543
C	1.01102	-0.609413	-0.310384
C	0.185898	-0.881832	0.823228
C	-0.822914	0.0351085	0.779731
O	-0.687415	0.856451	-0.294536
H	0.719053	0.999012	-1.85885
H	1.9262	-1.14526	-0.609408
H	0.334129	-1.67089	1.57789
H	-1.68553	0.205127	1.44474
C	6.82091	0.122836	0.572488
C	5.97067	1.13139	0.171176
N	4.88338	0.630165	-0.463701
C	5.05842	-0.684342	-0.456278
N	6.21202	-1.04027	0.157004
H	7.78405	0.149594	1.10652
H	6.1223	2.21174	0.328358
H	4.37288	-1.43245	-0.885927
H	6.57369	-2.01629	0.290549
