18
  This energy is -0.7629 and Call times are: 30498
C	1.07839	-0.345128	-0.0660974
C	0.141577	-1.01231	0.667131
C	-1.07529	-0.282471	0.503826
C	-0.774676	0.766284	-0.314781
O	0.536252	0.74362	-0.672504
H	2.15009	-0.540707	-0.234804
H	0.292333	-1.92668	1.2632
H	-2.05561	-0.518456	0.948101
H	-1.39613	1.58621	-0.710711
C	4.97841	-0.988173	-0.369525
C	5.29226	0.116863	-1.13211
N	5.88796	1.07524	-0.381663
C	5.94345	0.566687	0.841823
N	5.40775	-0.675537	0.900951
H	4.496	-1.94305	-0.632263
H	5.09955	0.239788	-2.21035
H	6.36593	1.06124	1.7313
H	5.3336	-1.28449	1.75239
