18
  This energy is -0.8169 and Call times are: 184346
C	0.271554	1.08639	-0.180074
C	1.06089	0.056745	-0.60098
C	0.393571	-1.13892	-0.194551
C	-0.744648	-0.734385	0.438838
O	-0.835327	0.621515	0.456889
H	0.385138	2.17912	-0.271024
H	2.01714	0.131695	-1.14326
H	0.729548	-2.17533	-0.359061
H	-1.55958	-1.3053	0.913393
C	6.85211	0.191388	0.145246
C	6.21307	-0.162814	-1.02407
N	4.87919	-0.301689	-0.8292
C	4.69144	-0.0346567	0.456128
N	5.85057	0.268365	1.08714
H	7.91332	0.387574	0.366383
H	6.69058	-0.32065	-2.00485
H	3.72577	-0.0464452	0.986762
H	5.9646	0.514963	2.10077
