18
  This energy is -1.2041 and Call times are: 100730
C	-0.625594	0.424175	0.845641
C	-0.89315	0.689767	-0.465179
C	0.0982684	-0.012081	-1.21659
C	0.884146	-0.644606	-0.298611
O	0.456516	-0.389209	0.965872
H	-1.12368	0.749061	1.77387
H	-1.70702	1.317	-0.86305
H	0.205919	-0.037215	-2.31289
H	1.76552	-1.29627	-0.415891
C	4.32651	0.774358	0.843008
C	4.86798	1.05434	-0.393744
N	5.05466	-0.0787647	-1.11328
C	4.6306	-1.05797	-0.32591
N	4.18185	-0.594871	0.864785
H	4.04332	1.43069	1.68121
H	5.1273	2.05364	-0.779755
H	4.62628	-2.13214	-0.571619
H	3.79705	-1.1694	1.65415
