18
  This energy is -1.0959 and Call times are: 43818
C	0.748771	-0.773625	-0.356718
C	-0.418998	-0.528366	-1.01743
C	-1.08183	0.494844	-0.273241
C	-0.260595	0.784528	0.776535
O	0.861955	0.0192521	0.741256
H	1.57175	-1.47739	-0.563268
H	-0.777658	-1.01879	-1.93663
H	-2.05659	0.955486	-0.500733
H	-0.359876	1.50446	1.60545
C	5.65639	-0.895429	0.390444
C	5.8292	-0.192974	-0.78337
N	4.89023	0.775109	-0.91623
C	4.13777	0.673613	0.171027
N	4.55905	-0.318919	0.990166
H	6.21792	-1.73671	0.826879
H	6.61458	-0.367339	-1.53678
H	3.2659	1.30083	0.417344
H	4.13127	-0.596415	1.90737
