18
  This energy is -1.4825 and Call times are: 45614
C	-0.197115	1.06622	-0.332745
C	0.842575	0.329582	-0.819348
C	0.759299	-0.940303	-0.170831
C	-0.323928	-0.867571	0.654822
O	-0.919988	0.350749	0.56868
H	-0.525392	2.09693	-0.545186
H	1.59287	0.648458	-1.56061
H	1.43219	-1.80178	-0.3093
H	-0.768076	-1.60379	1.34473
C	5.27872	-0.430458	1.09252
C	6.15892	0.435473	0.47888
N	5.75973	0.724721	-0.783458
C	4.63616	0.0408321	-0.952294
N	4.3039	-0.671562	0.150291
H	5.2771	-0.877267	2.09945
H	7.07486	0.856709	0.924372
H	4.01661	0.0258345	-1.86343
H	3.46378	-1.28978	0.265447
