18
  This energy is -1.4243 and Call times are: 163324
C	0.80716	0.755374	0.253581
C	0.0547849	0.141127	1.21119
C	-0.838012	-0.72602	0.51041
C	-0.552399	-0.565125	-0.813566
O	0.449823	0.335915	-0.988746
H	1.61712	1.49967	0.326034
H	0.121778	0.284306	2.30165
H	-1.60087	-1.38885	0.949506
H	-0.984682	-1.02738	-1.71617
C	4.21403	-0.978531	0.437492
C	5.18741	-0.201965	1.02962
N	5.51537	0.852989	0.244753
C	4.74836	0.731351	-0.830203
N	3.94598	-0.357266	-0.761828
H	3.70993	-1.8986	0.773485
H	5.65893	-0.383986	2.00911
H	4.73397	1.41143	-1.6971
H	3.25191	-0.6687	-1.4847
