18
  This energy is -1.0282 and Call times are: 67196
C	-0.239226	-0.593982	-0.93614
C	0.738023	0.35699	-0.904306
C	0.737122	0.874136	0.427113
C	-0.240596	0.193533	1.09136
O	-0.847205	-0.70706	0.274061
H	-0.594258	-1.25059	-1.74736
H	1.39374	0.663547	-1.73506
H	1.392	1.66138	0.833903
H	-0.596881	0.256486	2.13268
C	5.93175	0.108445	1.08946
C	6.53182	-0.522886	0.0205916
N	5.75201	-0.457985	-1.08585
C	4.67228	0.211064	-0.704828
N	4.73276	0.574547	0.598173
H	6.26207	0.254158	2.13023
H	7.51346	-1.02405	0.0279425
H	3.80735	0.462416	-1.33961
H	4.00496	1.10951	1.13239
