18
  This energy is -1.1048 and Call times are: 28542
C	1.03174	0.336435	-0.329721
C	0.142853	1.18289	0.265061
C	-1.02399	0.402408	0.528582
C	-0.745136	-0.852086	0.071572
O	0.506054	-0.910467	-0.455804
H	2.05596	0.4972	-0.7044
H	0.293715	2.24984	0.495146
H	-1.9577	0.743915	1.00361
H	-1.34447	-1.77728	0.0635559
C	4.63554	0.952845	0.67092
C	4.41817	-0.360265	1.03097
N	4.71147	-1.20182	0.0100557
C	5.10929	-0.413793	-0.979576
N	5.08126	0.894282	-0.630654
H	4.50882	1.89345	1.23015
H	4.05496	-0.715508	2.00909
H	5.43204	-0.742316	-1.98064
H	5.34821	1.70869	-1.23625
