18
  This energy is -1.2453 and Call times are: 69113
C	-0.882406	0.316403	-0.638474
C	-0.896415	0.405357	0.722505
C	0.374076	-0.0797451	1.15914
C	1.05231	-0.422315	0.0264314
O	0.29999	-0.187005	-1.08066
H	-1.64035	0.575383	-1.3959
H	-1.71891	0.775452	1.35546
H	0.732494	-0.16055	2.19793
H	2.06213	-0.838306	-0.123469
C	5.07293	0.0943486	1.1728
C	5.92876	-0.686319	0.424971
N	5.67974	-0.552696	-0.900414
C	4.67325	0.307596	-0.974537
N	4.27155	0.726888	0.248746
H	4.98053	0.239687	2.26086
H	6.72146	-1.34359	0.818011
H	4.19213	0.664929	-1.89924
H	3.49717	1.40469	0.454136
