18
  This energy is -1.5986 and Call times are: 29614
C	-0.318071	-1.07632	-0.163623
C	-0.242201	-0.173976	-1.18362
C	0.187273	1.05206	-0.589902
C	0.335937	0.790702	0.740498
O	0.0315467	-0.504302	1.01857
H	-0.603613	-2.14098	-0.149076
H	-0.4662	-0.353703	-2.2474
H	0.362468	2.01193	-1.10182
H	0.647966	1.43195	1.58115
C	3.75913	0.74895	-0.342193
C	5.03986	0.65701	-0.844595
N	5.74187	-0.317964	-0.217604
C	4.89985	-0.828928	0.67039
N	3.69118	-0.21948	0.63439
H	2.91927	1.41285	-0.601847
H	5.46994	1.27671	-1.64825
H	5.1167	-1.6505	1.37197
H	2.86057	-0.44224	1.23582
