18
  This energy is -0.977 and Call times are: 78688
C	-0.169135	1.06221	-0.359863
C	1.05922	0.469809	-0.383682
C	0.869406	-0.845098	0.140824
C	-0.458191	-0.940141	0.438858
O	-1.10765	0.215535	0.139479
H	-0.502073	2.06748	-0.666209
H	2.00419	0.914195	-0.735329
H	1.63794	-1.62291	0.276702
H	-1.05524	-1.76444	0.862311
C	4.771	-0.77081	-0.322036
C	5.4555	0.09968	-1.14353
N	6.34037	0.844405	-0.437207
C	6.20534	0.43747	0.817701
N	5.27123	-0.535304	0.939113
H	3.98939	-1.51633	-0.538419
H	5.32673	0.203714	-2.23323
H	6.76556	0.818131	1.68689
H	4.98297	-1.01813	1.82514
