18
  This energy is -1.2144 and Call times are: 83509
C	0.632692	0.456415	-0.823278
C	-0.613547	-0.0475396	-1.05413
C	-1.08227	-0.52474	0.20789
C	-0.0810903	-0.27027	1.09853
O	0.973944	0.328672	0.486012
H	1.36765	0.926381	-1.49724
H	-1.14904	-0.079985	-2.01657
H	-2.05344	-1.00074	0.418486
H	0.00168014	-0.464281	2.18055
C	3.9079	-0.723662	0.714719
C	4.47501	-1.04255	-0.500945
N	5.08094	0.035456	-1.05526
C	4.89045	1.01937	-0.186781
N	4.18844	0.61208	0.897141
H	3.34337	-1.33243	1.43877
H	4.45782	-2.03115	-0.987999
H	5.24371	2.05751	-0.294961
H	3.91077	1.20153	1.71977
