18
  This energy is -0.8058 and Call times are: 70979
C	-0.642734	0.184299	-0.916149
C	0.695569	-0.0649648	-1.00093
C	1.14629	-0.241545	0.34287
C	0.0436301	-0.0845997	1.13019
O	-1.05782	0.176034	0.377934
H	-1.40038	0.381045	-1.69237
H	1.3043	-0.119059	-1.91778
H	2.17397	-0.459769	0.675069
H	-0.0868764	-0.133547	2.22373
C	6.87593	0.151613	0.452198
C	5.78385	0.976355	0.620444
N	4.70332	0.497778	-0.0428312
C	5.12347	-0.619611	-0.62036
N	6.42654	-0.87183	-0.352042
H	7.9067	0.218346	0.83509
H	5.75622	1.90814	1.20854
H	4.51844	-1.29126	-1.25048
H	6.98761	-1.69095	-0.691902
