18
  This energy is -0.8503 and Call times are: 23836
C	-0.497893	-0.261615	0.984917
C	0.328849	-1.12772	0.331665
C	0.751913	-0.447629	-0.850966
C	0.146353	0.774028	-0.816003
O	-0.620703	0.904752	0.298245
H	-1.05279	-0.354935	1.93288
H	0.612335	-2.1436	0.650601
H	1.42863	-0.831372	-1.63128
H	0.180106	1.62698	-1.51356
C	6.54073	-0.307915	0.455161
C	6.31573	0.283761	-0.769764
N	4.99335	0.499916	-0.972478
C	4.40023	0.0440698	0.122525
N	5.29041	-0.453165	1.01355
H	7.47106	-0.625302	0.952427
H	7.08389	0.558556	-1.5109
H	3.31685	0.0499643	0.323714
H	5.07011	-0.869927	1.95112
