18
  This energy is -1.5964 and Call times are: 179923
C	0.0433675	0.88477	-0.70831
C	-0.451223	0.986987	0.558697
C	-0.339321	-0.317943	1.12857
C	0.213773	-1.10239	0.159493
O	0.454025	-0.384245	-0.969028
H	0.156118	1.6313	-1.51157
H	-0.854411	1.89066	1.04338
H	-0.638497	-0.627198	2.14294
H	0.482224	-2.17154	0.149151
C	4.25982	-0.889375	0.754029
C	3.61727	0.304172	1.00645
N	3.61692	1.10038	-0.090171
C	4.25683	0.403424	-1.01936
N	4.66431	-0.803225	-0.559422
H	4.45148	-1.76475	1.39475
H	3.15392	0.605065	1.96018
H	4.45477	0.729296	-2.05322
H	5.1885	-1.53392	-1.10031
