18
  This energy is -1.305 and Call times are: 176968
C	-0.345076	-0.477083	-0.969389
C	0.674315	-0.992474	-0.224012
C	0.810394	-0.126812	0.903919
C	-0.137856	0.841154	0.748235
O	-0.852698	0.642828	-0.390484
H	-0.79771	-0.809465	-1.91802
H	1.27062	-1.892	-0.446182
H	1.53318	-0.221715	1.73015
H	-0.401151	1.71326	1.36901
C	4.49892	0.817056	0.682961
C	4.01718	0.329844	-0.513574
N	4.85062	-0.604778	-1.03163
C	5.84562	-0.697028	-0.159792
N	5.67981	0.140155	0.891505
H	4.09834	1.57237	1.37764
H	3.08318	0.635959	-1.01234
H	6.7208	-1.36148	-0.242259
H	6.32744	0.252243	1.7096
