18
  This energy is -0.5539 and Call times are: 185754
C	0.272152	0.749784	-0.806323
C	1.17723	-0.13266	-0.293974
C	0.468309	-0.897382	0.682115
C	-0.807397	-0.414742	0.680073
O	-0.945065	0.591573	-0.222917
H	0.368608	1.53015	-1.57897
H	2.23769	-0.234829	-0.575186
H	0.869834	-1.71036	1.30817
H	-1.69733	-0.698415	1.26556
C	7.43218	-0.184535	0.263086
C	6.57384	0.702592	0.877416
N	5.33985	0.654566	0.319323
C	5.4323	-0.25888	-0.637595
N	6.67396	-0.794042	-0.711492
H	8.4935	-0.417472	0.444415
H	6.82284	1.37644	1.71335
H	4.62137	-0.574437	-1.31365
H	6.99744	-1.53256	-1.38321
