18
  This energy is -0.8097 and Call times are: 74390
C	0.659042	0.185023	0.90434
C	1.16432	0.0778217	-0.358027
C	0.0412524	-0.149806	-1.21068
C	-1.05118	-0.161609	-0.394086
O	-0.692386	0.0413421	0.900939
H	1.1497	0.360739	1.87575
H	2.22182	0.151633	-0.658622
H	0.0548589	-0.287573	-2.30381
H	-2.12317	-0.302614	-0.60906
C	6.11813	-0.957849	-0.446277
C	6.18863	-0.50961	0.855743
N	5.46942	0.627052	1.02082
C	4.9547	0.882994	-0.174244
N	5.31659	-0.0437026	-1.09286
H	6.56666	-1.83345	-0.941941
H	6.74556	-0.986008	1.67898
H	4.30597	1.7356	-0.432027
H	5.03941	-0.0622827	-2.10483
