18
  This energy is -1.3433 and Call times are: 25813
C	-1.1284	0.0596349	-0.0977743
C	-0.30525	1.06563	-0.511015
C	1.02336	0.625983	-0.225321
C	0.894819	-0.609868	0.337283
O	-0.412424	-0.971528	0.422892
H	-2.22585	-0.0423497	-0.119001
H	-0.603714	2.02142	-0.970891
H	1.95983	1.17312	-0.419645
H	1.646	-1.32358	0.713572
C	6.82208	-0.079343	1.16066
C	7.9327	0.436682	0.527123
N	7.80128	0.371154	-0.820076
C	6.61363	-0.183415	-1.02153
N	5.98395	-0.473456	0.141638
H	6.577	-0.190296	2.22892
H	8.82648	0.855098	1.01797
H	6.15642	-0.39974	-2.00051
H	5.03759	-0.914522	0.247112
