18
  This energy is -1.1308 and Call times are: 163548
C	0.207882	-1.01882	0.452972
C	1.16247	-0.0482118	0.369076
C	0.528302	1.07134	-0.251051
C	-0.757842	0.686032	-0.491362
O	-0.971046	-0.5876	-0.067784
H	0.241429	-2.04437	0.855938
H	2.20829	-0.114019	0.709707
H	0.984661	2.04614	-0.486823
H	-1.60668	1.21823	-0.95124
C	4.50517	0.0731882	-0.947076
C	5.02927	-1.07502	-0.39201
N	5.78747	-0.790429	0.694566
C	5.73395	0.529307	0.813132
N	4.97312	1.09622	-0.152963
H	3.85405	0.229466	-1.8218
H	4.8739	-2.10368	-0.756092
H	6.23323	1.13163	1.58912
H	4.77706	2.12002	-0.274005
