18
  This energy is -1.0893 and Call times are: 74005
C	-0.742339	0.640855	0.569771
C	0.463807	0.279215	1.09399
C	1.1039	-0.512607	0.0922846
C	0.232408	-0.564939	-0.955631
O	-0.900368	0.134042	-0.6813
H	-1.56563	1.248	0.980647
H	0.862743	0.543532	2.0865
H	2.09781	-0.984283	0.153721
H	0.299747	-1.05954	-1.93853
C	5.25999	-1.08584	0.111544
C	6.4994	-0.648378	0.528245
N	6.67694	0.663732	0.239528
C	5.55195	1.03884	-0.354029
N	4.66597	0.0197942	-0.454941
H	4.77485	-2.07277	0.175889
H	7.2687	-1.25601	1.03205
H	5.32434	2.04772	-0.734279
H	3.7089	0.0635953	-0.88313
