18
  This energy is -0.9952 and Call times are: 41869
C	0.243523	1.07277	-0.27616
C	0.377103	0.0426436	-1.16011
C	-0.0191825	-1.13332	-0.45288
C	-0.359944	-0.718003	0.80082
O	-0.205561	0.626398	0.926374
H	0.432925	2.15385	-0.379289
H	0.720274	0.104661	-2.20533
H	-0.0443558	-2.16436	-0.840731
H	-0.721935	-1.27316	1.68174
C	4.13887	-0.1645	-0.481701
C	4.44504	-0.15593	0.86267
N	5.76775	0.0620901	1.06119
C	6.28021	0.188294	-0.155396
N	5.33839	0.0596104	-1.11976
H	3.18413	-0.309387	-1.01181
H	3.73522	-0.303154	1.69293
H	7.33883	0.37571	-0.397091
H	5.49255	0.119206	-2.15607
