18
  This energy is -0.7551 and Call times are: 31439
C	0.882302	0.457321	-0.546627
C	0.27901	-0.69176	-0.966183
C	-0.774035	-0.943168	-0.0345145
C	-0.721285	0.0744734	0.872125
O	0.284302	0.938971	0.57472
H	1.73426	1.02641	-0.953521
H	0.548507	-1.3012	-1.84371
H	-1.48334	-1.78629	-0.0460615
H	-1.33454	0.293751	1.76156
C	5.73871	-1.14585	-0.229952
C	4.54681	-0.459041	-0.136174
N	4.75798	0.850506	0.141317
C	6.07589	0.975627	0.219391
N	6.712	-0.200024	0.00307833
H	5.95593	-2.20539	-0.439048
H	3.53826	-0.88496	-0.263768
H	6.62771	1.90534	0.432364
H	7.74904	-0.360464	0.0113121
