18
  This energy is -0.9406 and Call times are: 209341
C	0.22598	-0.883077	-0.674914
C	0.957442	0.267675	-0.708197
C	0.375856	1.12912	0.27149
C	-0.659663	0.42874	0.816962
O	-0.765739	-0.802207	0.25081
H	0.309131	-1.81915	-1.25119
H	1.82002	0.487816	-1.3575
H	0.697853	2.14997	0.532798
H	-1.38573	0.69128	1.60382
C	4.40505	-0.275106	0.33242
C	5.08675	-0.768251	-0.759934
N	6.32965	-0.234426	-0.842045
C	6.41868	0.586767	0.195424
N	5.28394	0.597569	0.934239
H	3.39054	-0.476695	0.711456
H	4.70404	-1.49967	-1.49028
H	7.29187	1.20427	0.460849
H	5.10731	1.16299	1.80047
