18
  This energy is -1.9006 and Call times are: 161957
C	-0.0306718	-0.678493	0.908354
C	0.949161	0.252416	0.724753
C	0.648241	0.897831	-0.513392
C	-0.488916	0.304351	-0.977104
O	-0.91742	-0.660609	-0.121389
H	-0.206456	-1.40483	1.71877
H	1.79862	0.463431	1.39407
H	1.218	1.70876	-0.994923
H	-1.0834	0.476042	-1.88944
C	4.05154	-0.916799	-0.493728
C	4.96981	-0.957358	0.53403
N	5.40005	0.287171	0.854273
C	4.75115	1.09672	0.0283245
N	3.92588	0.418875	-0.804167
H	3.4971	-1.7172	-1.00898
H	5.3296	-1.86232	1.05021
H	4.84292	2.19416	-0.00957948
H	3.30803	0.832076	-1.54496
