18
  This energy is -0.8026 and Call times are: 158507
C	-0.0275974	0.256421	-1.10449
C	0.915648	-0.571317	-0.570152
C	0.623197	-0.647708	0.825826
C	-0.472944	0.140092	1.02132
O	-0.883789	0.70011	-0.146838
H	-0.195156	0.603474	-2.13731
H	1.73516	-1.07734	-1.10535
H	1.17088	-1.22473	1.58818
H	-1.04742	0.380855	1.93086
C	4.74134	0.130795	0.159639
C	5.74829	0.814836	0.80716
N	6.96829	0.411127	0.376899
C	6.71914	-0.519823	-0.534079
N	5.39119	-0.725183	-0.70128
H	3.64488	0.190567	0.247625
H	5.61635	1.59243	1.57709
H	7.47203	-1.08279	-1.10893
H	4.94218	-1.40663	-1.36104
