18
  This energy is -0.6551 and Call times are: 29839
C	-0.36161	-0.658185	-0.84996
C	0.769252	-0.937262	-0.140283
C	0.889804	0.104954	0.828928
C	-0.178033	0.92891	0.625964
O	-0.952829	0.478011	-0.395502
H	-0.845477	-1.18259	-1.69027
H	1.45022	-1.79136	-0.284807
H	1.68283	0.219587	1.58528
H	-0.494165	1.85465	1.13421
C	4.9926	0.270371	0.292692
C	6.00129	-0.124	1.14602
N	7.15188	-0.355534	0.468482
C	6.8581	-0.105749	-0.800347
N	5.56829	0.275117	-0.95821
H	3.94095	0.539016	0.480798
H	5.91945	-0.24562	2.23843
H	7.54994	-0.18592	-1.65426
H	5.09666	0.52619	-1.86142
