18
  This energy is -0.5997 and Call times are: 162876
C	1.02662	0.201856	-0.437843
C	0.749005	0.380279	0.885588
C	-0.625665	0.0279687	1.04769
C	-1.06674	-0.334647	-0.190996
O	-0.0708371	-0.234465	-1.11032
H	1.95324	0.34853	-1.01673
H	1.44267	0.72537	1.66907
H	-1.20975	0.0455893	1.98184
H	-2.05284	-0.678178	-0.544337
C	5.86473	0.624046	-0.897886
C	5.19439	-0.311371	-0.138422
N	6.00236	-0.837384	0.813952
C	7.16949	-0.230599	0.645953
N	7.13764	0.659687	-0.373834
H	5.53696	1.24613	-1.7459
H	4.14223	-0.616143	-0.260602
H	8.08065	-0.400565	1.24189
H	7.93137	1.26229	-0.702645
