18
  This energy is -2.2137 and Call times are: 66734
C	0.32452	-0.0209599	1.08658
C	0.72139	0.958687	0.224509
C	0.116257	0.643903	-1.03042
C	-0.596981	-0.500316	-0.824438
O	-0.481077	-0.920399	0.462849
H	0.543554	-0.18835	2.15394
H	1.37473	1.8169	0.449726
H	0.20713	1.20952	-1.97165
H	-1.21993	-1.1057	-1.50319
C	4.35709	0.914137	-0.695234
C	4.91087	0.628491	0.534758
N	4.38102	-0.503693	1.05813
C	3.50187	-0.918845	0.156258
N	3.45039	-0.0977408	-0.919255
H	4.53803	1.73838	-1.40335
H	5.68325	1.21905	1.05392
H	2.86912	-1.81771	0.233044
H	2.8367	-0.210462	-1.76302
