18
  This energy is -2.2386 and Call times are: 20310
C	0.543762	0.970954	0.219026
C	0.6613	-0.128304	1.01789
C	-0.159946	-1.13391	0.422555
C	-0.706837	-0.560393	-0.687562
O	-0.287937	0.724914	-0.827279
H	0.994226	1.97488	0.285911
H	1.26569	-0.221661	1.93446
H	-0.318902	-2.16197	0.785761
H	-1.39906	-0.955673	-1.44903
C	4.48379	0.0342881	-1.10031
C	5.80161	-0.100821	-0.717919
N	5.92105	-0.10181	0.631986
C	4.68204	0.0321771	1.08531
N	3.7792	0.118376	0.079805
H	4.01321	0.0751851	-2.09551
H	6.66837	-0.197606	-1.39187
H	4.37959	0.0729983	2.14413
H	2.7404	0.228317	0.180083
