18
  This energy is -1.4885 and Call times are: 182227
C	0.262273	1.05606	0.319913
C	0.701592	0.518093	-0.853953
C	0.170792	-0.807157	-0.899564
C	-0.546034	-0.962039	0.250455
O	-0.501028	0.166015	1.00708
H	0.421219	2.04773	0.774418
H	1.33582	1.00559	-1.61171
H	0.311642	-1.55147	-1.69972
H	-1.12565	-1.81432	0.641498
C	4.54404	0.220724	1.12996
C	4.37102	-1.01686	0.547211
N	4.10104	-0.900568	-0.775702
C	4.10654	0.404194	-1.01275
N	4.36884	1.1229	0.104505
H	4.77184	0.513502	2.16723
H	4.43616	-1.99159	1.05761
H	3.92456	0.887381	-1.98622
H	4.42755	2.16823	0.175958
