18
  This energy is -0.7134 and Call times are: 163452
C	0.359326	-1.07287	-0.0790337
C	-0.963123	-0.740927	-0.11537
C	-1.01296	0.680946	0.0107721
C	0.283436	1.09237	0.113057
O	1.1349	0.0344481	0.0600726
H	0.870431	-2.0476	-0.141572
H	-1.81779	-1.42838	-0.220459
H	-1.91395	1.31511	0.0229319
H	0.7252	2.09603	0.226033
C	7.02227	0.902814	-0.545211
C	5.94942	0.167927	-1.00357
N	5.60589	-0.799258	-0.118666
C	6.46236	-0.664898	0.884842
N	7.3366	0.347684	0.675123
H	7.56616	1.75317	-0.986363
H	5.4171	0.318262	-1.95692
H	6.49388	-1.28133	1.79767
H	8.10707	0.651916	1.31939
