18
  This energy is -0.8468 and Call times are: 207796
C	-0.0172182	-0.803486	-0.800322
C	1.12012	-0.468286	-0.126177
C	0.744463	0.566092	0.78435
C	-0.589277	0.771673	0.586237
O	-1.07087	-0.0561716	-0.378001
H	-0.205424	-1.54668	-1.59246
H	2.12301	-0.905562	-0.256965
H	1.39817	1.09026	1.49989
H	-1.30018	1.46771	1.06101
C	5.02041	0.412423	0.22247
C	5.38734	-0.908361	0.074015
N	6.71458	-1.02173	-0.175199
C	7.1693	0.223992	-0.181327
N	6.18641	1.12527	0.0536586
H	4.04462	0.879916	0.429396
H	4.71818	-1.78153	0.142263
H	8.21312	0.532645	-0.35278
H	6.29238	2.16834	0.098676
