18
  This energy is -0.8645 and Call times are: 59742
C	0.39376	-0.535601	-0.918959
C	0.746741	0.745897	-0.613111
C	0.0577515	1.06296	0.597212
C	-0.655438	-0.0527685	0.92413
O	-0.462036	-1.03886	0.00913143
H	0.679127	-1.1923	-1.75715
H	1.42432	1.40209	-1.18267
H	0.0949228	2.01386	1.15264
H	-1.32873	-0.268303	1.76999
C	5.92015	0.266345	1.02157
C	6.41557	-0.553376	0.0297149
N	5.55196	-0.637674	-1.01124
C	4.52469	0.126843	-0.666478
N	4.69888	0.694084	0.550685
H	6.33636	0.565586	1.99664
H	7.38067	-1.08548	0.0465577
H	3.61899	0.306251	-1.26794
H	4.03088	1.33719	1.04206
