18
  This energy is -0.7107 and Call times are: 111358
C	0.70026	0.748202	0.486035
C	-0.550667	0.498145	0.968765
C	-1.11465	-0.486915	0.101761
C	-0.158581	-0.751855	-0.834246
O	0.956425	-0.00644983	-0.614824
H	1.49413	1.4308	0.831107
H	-1.02834	0.960937	1.84726
H	-2.11654	-0.939728	0.17438
H	-0.149435	-1.43987	-1.69553
C	6.59254	-0.85501	0.161035
C	6.80447	0.502425	0.277668
N	5.66964	1.19784	0.0225531
C	4.75717	0.275329	-0.251305
N	5.26438	-0.978222	-0.181013
H	7.27027	-1.71341	0.292838
H	7.75587	0.992482	0.541327
H	3.7025	0.462774	-0.509686
H	4.74486	-1.87343	-0.354097
