18
  This energy is -1.228 and Call times are: 46638
C	0.0605845	1.1107	-0.221515
C	-1.07025	0.523575	0.265165
C	-0.759079	-0.862737	0.411549
C	0.534444	-1.00038	0.00139945
O	1.05062	0.194787	-0.38865
H	0.285153	2.15693	-0.48651
H	-2.02751	1.01719	0.497748
H	-1.4271	-1.65768	0.780194
H	1.19198	-1.88307	-0.0599179
C	4.53788	1.00099	-0.6178
C	4.75273	-0.274624	-1.09508
N	4.63023	-1.19333	-0.1064
C	4.34049	-0.490332	0.980093
N	4.27355	0.837588	0.723699
H	4.55384	1.98079	-1.12106
H	4.99393	-0.548531	-2.1351
H	4.16742	-0.897677	1.98922
H	4.06083	1.59784	1.4151
