18
  This energy is -1.1446 and Call times are: 203378
C	0.264864	0.597894	0.926699
C	0.765949	-0.649177	0.694103
C	0.20969	-1.0677	-0.553105
C	-0.582211	-0.0394427	-0.972561
O	-0.560329	0.986039	-0.0809778
H	0.416627	1.30301	1.76039
H	1.45787	-1.21735	1.33637
H	0.384576	-2.0249	-1.07011
H	-1.20443	0.0833293	-1.87424
C	5.75687	-0.648665	0.47969
C	5.6015	-0.339569	-0.855025
N	4.50277	0.428341	-1.05407
C	3.97851	0.595002	0.152581
N	4.69812	-0.0350347	1.11112
H	6.52046	-1.24208	1.00727
H	6.26252	-0.65689	-1.67796
H	3.06862	1.16907	0.390844
H	4.48932	-0.0527049	2.1394
