18
  This energy is -0.8654 and Call times are: 188738
C	0.0943411	-0.942308	0.624144
C	-1.04857	-0.622947	-0.0482703
C	-0.781558	0.616106	-0.70673
C	0.500946	0.944533	-0.378565
O	1.05108	0.00392876	0.433611
H	0.349827	-1.80267	1.26427
H	-1.98565	-1.20183	-0.077644
H	-1.47046	1.18891	-1.34814
H	1.12795	1.80819	-0.654624
C	4.95248	0.743364	-0.642823
C	4.59123	0.147428	0.546926
N	5.58112	-0.651992	1.01335
C	6.55278	-0.552374	0.116363
N	6.22216	0.277292	-0.901444
H	4.41386	1.4428	-1.30177
H	3.63406	0.279969	1.07713
H	7.52718	-1.06542	0.155915
H	6.81926	0.519387	-1.72977
