18
  This energy is -1.504 and Call times are: 45871
C	0.281835	-0.816518	0.73503
C	0.811441	0.438774	0.79933
C	0.220803	1.16796	-0.277495
C	-0.617594	0.293894	-0.904768
O	-0.592838	-0.922779	-0.299701
H	0.443868	-1.7112	1.35836
H	1.54449	0.813642	1.53159
H	0.404857	2.2206	-0.546132
H	-1.27738	0.413804	-1.77973
C	3.9354	0.0160045	-0.798318
C	4.09291	-0.885574	0.23294
N	5.2013	-0.60644	0.960994
C	5.7294	0.464234	0.383596
N	5.00297	0.877906	-0.681657
H	3.16487	0.102368	-1.58085
H	3.42664	-1.73246	0.464698
H	6.64706	0.98572	0.700125
H	5.21299	1.69881	-1.30075
