18
  This energy is -1.0635 and Call times are: 208068
C	0.818493	0.783837	0.0454857
C	1.07659	-0.526506	-0.231569
C	-0.188154	-1.18944	-0.199279
C	-1.10748	-0.225689	0.0946565
O	-0.510249	0.985503	0.247444
H	1.48418	1.65876	0.126899
H	2.05905	-0.980679	-0.437969
H	-0.381272	-2.25981	-0.375665
H	-2.20157	-0.273178	0.220998
C	4.91255	-1.03671	-0.400255
C	5.57724	-0.803348	0.785017
N	5.87584	0.510853	0.927229
C	5.39821	1.09058	-0.165662
N	4.80809	0.199717	-0.99735
H	4.51958	-1.9642	-0.84621
H	5.8467	-1.5597	1.54011
H	5.45346	2.16425	-0.40736
H	4.35693	0.410689	-1.92104
