18
  This energy is -1.1661 and Call times are: 146005
C	-0.279754	-1.08259	-0.19011
C	0.219805	-0.65637	1.00536
C	0.445182	0.746261	0.857203
C	0.0634527	1.05335	-0.415728
O	-0.381916	-0.0516258	-1.06971
H	-0.596878	-2.08007	-0.536101
H	0.410468	-1.26831	1.90162
H	0.845332	1.43806	1.61575
H	0.0599188	2.00749	-0.967868
C	3.99297	0.259343	-0.303843
C	5.11673	0.374832	-1.0944
N	6.22845	-0.0119018	-0.422816
C	5.79602	-0.365963	0.779792
N	4.45524	-0.220539	0.901233
H	2.9324	0.477414	-0.506762
H	5.14526	0.730276	-2.13732
H	6.41848	-0.738731	1.60914
H	3.87785	-0.43289	1.7514
