18
  This energy is -1.1442 and Call times are: 177508
C	0.812646	-0.0546146	-0.789319
C	1.01706	0.51936	0.430986
C	-0.220407	0.395645	1.13348
C	-1.07177	-0.243009	0.280444
O	-0.457532	-0.525505	-0.898503
H	1.48148	-0.189154	-1.65524
H	1.94606	0.983326	0.799482
H	-0.44162	0.744619	2.15494
H	-2.12475	-0.549687	0.391974
C	5.55296	-0.317626	-1.07686
C	5.94671	0.800945	-0.373359
N	5.34148	0.85445	0.837985
C	4.57519	-0.226815	0.885789
N	4.66776	-0.966077	-0.244925
H	5.83078	-0.685797	-2.07726
H	6.65665	1.57034	-0.718138
H	3.92611	-0.525266	1.72475
H	4.16164	-1.86244	-0.448976
