18
  This energy is -0.5321 and Call times are: 39370
C	-0.783811	0.448677	0.686098
C	0.288826	-0.24812	1.1597
C	1.0354	-0.64634	0.00897591
C	0.353079	-0.157736	-1.06623
O	-0.760528	0.513707	-0.671194
H	-1.62247	0.941374	1.20489
H	0.530114	-0.460393	2.21365
H	1.97062	-1.22876	-0.00666136
H	0.553199	-0.219122	-2.14856
C	5.6653	0.331816	0.933887
C	5.18324	-0.0682114	-0.294423
N	6.19621	-0.380362	-1.1388
C	7.30247	-0.174766	-0.436993
N	7.03538	0.255259	0.818925
H	5.1476	0.654778	1.85107
H	4.12269	-0.137187	-0.586499
H	8.33425	-0.323472	-0.794137
H	7.73809	0.486325	1.56328
