18
  This energy is -0.8812 and Call times are: 130675
C	-0.279509	-0.642156	-0.892138
C	-1.21539	-0.0353973	-0.107062
C	-0.485075	0.672007	0.896101
C	0.832621	0.435086	0.635487
O	0.97661	-0.365617	-0.453161
H	-0.377607	-1.28779	-1.78028
H	-2.31019	-0.0813628	-0.222766
H	-0.901056	1.28357	1.71283
H	1.75068	0.77374	1.14315
C	6.74947	0.0412579	-0.2492
C	6.06014	0.864817	0.615504
N	4.74657	0.534811	0.661782
C	4.62148	-0.48958	-0.171045
N	5.801	-0.82504	-0.745305
H	7.8124	0.0113492	-0.537022
H	6.48707	1.69121	1.20682
H	3.68903	-1.03134	-0.397475
H	5.96227	-1.59782	-1.43673
