18
  This energy is -0.6783 and Call times are: 37390
C	-0.696	0.677687	0.585427
C	-0.623103	-0.665389	0.811719
C	0.349449	-1.16456	-0.107566
C	0.785012	-0.0824576	-0.814468
O	0.157165	1.05098	-0.404409
H	-1.30663	1.46616	1.0552
H	-1.19666	-1.24631	1.55176
H	0.679874	-2.20946	-0.221998
H	1.5276	0.0114704	-1.62379
C	4.89248	-0.124687	-0.738892
C	6.16173	-0.640949	-0.892647
N	6.95705	-0.301387	0.150746
C	6.18414	0.422777	0.94876
N	4.93001	0.558053	0.456368
H	3.99513	-0.192565	-1.37426
H	6.51786	-1.25236	-1.73775
H	6.48589	0.878067	1.90578
H	4.13728	1.08301	0.900502
