18
  This energy is -0.9268 and Call times are: 118237
C	-0.338113	-1.06438	0.197905
C	0.897853	-0.771023	-0.298785
C	0.947708	0.652266	-0.407784
C	-0.262193	1.10301	0.0319206
O	-1.05994	0.0682047	0.405797
H	-0.817763	-2.02594	0.444091
H	1.69453	-1.48525	-0.562005
H	1.79072	1.26098	-0.772319
H	-0.672475	2.12183	0.126444
C	6.18997	-0.130255	0.368719
C	6.80667	-0.814103	-0.657525
N	8.0915	-0.411184	-0.81042
C	8.27119	0.519086	0.117444
N	7.15395	0.72477	0.854371
H	5.16745	-0.189568	0.774271
H	6.34755	-1.591	-1.29037
H	9.20099	1.08131	0.300768
H	7.04317	1.40582	1.64504
