18
  This energy is -0.9055 and Call times are: 19798
C	-0.897772	0.646977	-0.248651
C	0.136693	0.467354	-1.11928
C	1.06015	-0.39732	-0.45619
C	0.508474	-0.669757	0.761104
O	-0.68737	-0.0402225	0.904822
H	-1.82878	1.23165	-0.330115
H	0.23919	0.900321	-2.12731
H	2.02099	-0.768062	-0.847888
H	0.862364	-1.2882	1.60226
C	4.69171	-0.12476	0.594035
C	5.14193	-0.909957	-0.446114
N	6.34566	-0.480622	-0.896908
C	6.64108	0.566939	-0.139301
N	5.67521	0.82193	0.774848
H	3.77173	-0.171126	1.19821
H	4.61977	-1.77857	-0.879377
H	7.55154	1.18346	-0.211383
H	5.67549	1.59374	1.48588
