18
  This energy is -1.1299 and Call times are: 98566
C	-0.173725	-1.09769	0.22648
C	0.10171	-0.64595	-1.03068
C	0.253913	0.769357	-0.912966
C	0.0580515	1.05755	0.405729
O	-0.204241	-0.0708748	1.11627
H	-0.365354	-2.11208	0.613203
H	0.18895	-1.24889	-1.9488
H	0.482624	1.48194	-1.72168
H	0.0781985	2.01243	0.956233
C	4.4251	-0.145723	-1.06692
C	3.80183	-0.332225	0.148766
N	4.64731	-0.0743726	1.17598
C	5.79075	0.270782	0.599746
N	5.70784	0.243229	-0.751534
H	4.05881	-0.258499	-2.09971
H	2.75723	-0.64822	0.303084
H	6.72009	0.553105	1.12017
H	6.47463	0.47416	-1.42974
