18
  This energy is -2.0064 and Call times are: 139636
C	-0.594831	0.952418	-0.159616
C	-0.352234	0.442151	1.08181
C	0.415485	-0.744201	0.873742
C	0.574257	-0.85417	-0.476469
O	-0.0363258	0.173473	-1.12311
H	-1.14418	1.85059	-0.486346
H	-0.680932	0.859326	2.04723
H	0.800376	-1.42973	1.64575
H	1.09311	-1.60669	-1.09271
C	4.10306	-0.688381	-0.949001
C	3.75021	0.644358	-0.92784
N	3.72948	1.12427	0.339347
C	4.06819	0.0931783	1.10142
N	4.30356	-1.02289	0.371638
H	4.22171	-1.39873	-1.78258
H	3.51021	1.26823	-1.80421
H	4.15898	0.100377	2.19957
H	4.58514	-1.96377	0.741399
