18
  This energy is -0.9052 and Call times are: 132763
C	-1.13052	0.0745406	-0.052586
C	-0.483903	-1.11474	0.114328
C	0.909891	-0.803012	0.130992
C	0.99196	0.549249	-0.0272095
O	-0.244653	1.10141	-0.140892
H	-2.20289	0.32004	-0.123326
H	-0.942429	-2.11154	0.21556
H	1.74689	-1.51005	0.247713
H	1.85892	1.22849	-0.0747632
C	6.81043	0.317481	0.226377
C	5.68423	1.10401	0.345527
N	4.56876	0.415462	0.00183619
C	5.0013	-0.793629	-0.329271
N	6.34574	-0.902926	-0.2105
H	7.87417	0.532678	0.415257
H	5.65658	2.15598	0.673327
H	4.37632	-1.63653	-0.665645
H	6.92398	-1.755	-0.412691
