18
  This energy is -0.6858 and Call times are: 124288
C	0.888907	-0.491361	-0.504787
C	-0.0546649	0.204117	-1.20218
C	-0.997401	0.664019	-0.232718
C	-0.5467	0.208981	0.971517
O	0.604222	-0.498587	0.82409
H	1.79842	-1.02062	-0.833288
H	-0.0838877	0.376028	-2.29015
H	-1.90289	1.2634	-0.419585
H	-0.948909	0.319627	1.99193
C	6.28971	0.0934002	-0.764712
C	4.94844	0.271742	-1.02992
N	4.20104	0.0868654	0.0853076
C	5.07532	-0.205059	1.03874
N	6.34801	-0.213588	0.576387
H	7.17723	0.160965	-1.41377
H	4.50662	0.530501	-2.00598
H	4.83757	-0.421248	2.09277
H	7.21416	-0.415572	1.1334
