18
  This energy is -0.6086 and Call times are: 147162
C	-0.799986	-0.592874	0.54307
C	0.50261	-0.99481	0.497618
C	1.19143	-0.00301694	-0.265261
C	0.248962	0.917438	-0.618649
O	-0.972923	0.573072	-0.133447
H	-1.68764	-1.04229	1.01778
H	0.935021	-1.89901	0.955382
H	2.2641	0.0146529	-0.516588
H	0.319742	1.84801	-1.20541
C	6.76512	0.785127	0.428098
C	5.7413	1.02825	-0.462875
N	5.05534	-0.107022	-0.740604
C	5.65135	-1.05085	-0.024649
N	6.68809	-0.563164	0.697106
H	7.51795	1.45385	0.874847
H	5.48529	2.00249	-0.910284
H	5.36923	-2.11554	0.00811676
H	7.31397	-1.10828	1.33927
