18
  This energy is -0.5481 and Call times are: 203346
C	-0.666178	0.723362	-0.565115
C	-0.902201	-0.619785	-0.540173
C	0.136323	-1.18444	0.261542
C	0.915296	-0.1365	0.655745
O	0.439859	1.0362	0.160024
H	-1.20403	1.55119	-1.05569
H	-1.72508	-1.15885	-1.03654
H	0.278751	-2.24835	0.51036
H	1.82245	-0.094331	1.28068
C	6.87105	0.538552	0.390015
C	6.49888	0.353354	-0.924645
N	5.31912	-0.308018	-1.00996
C	4.96077	-0.532265	0.246986
N	5.86362	-0.0409894	1.12853
H	7.75213	1.0255	0.837375
H	7.06047	0.685103	-1.81313
H	4.04714	-1.05168	0.578198
H	5.80697	-0.0918743	2.17517
