18
  This energy is -1.4777 and Call times are: 48847
C	0.101108	-1.11954	-0.151025
C	-0.289522	-0.575094	1.03698
C	-0.297026	0.838916	0.835395
C	0.0896797	1.03373	-0.458004
O	0.336866	-0.151518	-1.07534
H	0.247745	-2.16688	-0.462212
H	-0.546594	-1.11505	1.96243
H	-0.561073	1.61327	1.57347
H	0.225876	1.95385	-1.04968
C	3.68979	-0.745618	0.0256397
C	3.89499	0.279089	-0.873812
N	5.04873	0.938566	-0.608325
C	5.55734	0.325313	0.451797
N	4.77504	-0.697019	0.871836
H	2.87544	-1.48143	0.120279
H	3.23122	0.554372	-1.70957
H	6.49982	0.584081	0.96073
H	4.95998	-1.33171	1.68683
