18
  This energy is -1.0531 and Call times are: 110346
C	0.169831	0.347607	-1.06617
C	0.375838	1.16127	0.00894584
C	0.0597474	0.376312	1.15962
C	-0.311514	-0.847738	0.686075
O	-0.250165	-0.883065	-0.671128
H	0.284716	0.522992	-2.14844
H	0.716239	2.20912	-0.00671785
H	0.106343	0.694541	2.21349
H	-0.636439	-1.76455	1.20486
C	4.08046	0.572498	-0.133694
C	4.28135	-0.789314	-0.212782
N	5.58332	-1.10393	-0.0068967
C	6.18784	0.0582757	0.199133
N	5.32447	1.09933	0.132872
H	3.17062	1.1836	-0.244544
H	3.51017	-1.55047	-0.414712
H	7.26087	0.204141	0.403015
H	5.55821	2.11441	0.260286
