18
  This energy is -0.421 and Call times are: 38569
C	1.04678	-0.0569016	-0.432908
C	0.363707	1.11878	-0.325464
C	-0.897155	0.786541	0.257597
C	-0.873268	-0.562845	0.454983
O	0.306369	-1.09427	0.0389779
H	2.05258	-0.285134	-0.822181
H	0.712716	2.11959	-0.626589
H	-1.72011	1.47853	0.498423
H	-1.62183	-1.25336	0.876982
C	7.34705	0.590195	0.691866
C	7.65257	-0.0806678	-0.473357
N	6.54762	-0.649442	-1.01381
C	5.56037	-0.332635	-0.187008
N	5.99136	0.414135	0.857103
H	7.97739	1.16138	1.39183
H	8.65049	-0.164479	-0.933774
H	4.50286	-0.621497	-0.298661
H	5.40459	0.787812	1.6428
