18
  This energy is -1.5047 and Call times are: 35512
C	-0.869819	0.0833991	-0.72309
C	-0.297264	1.17553	-0.140167
C	0.748698	0.671479	0.691705
C	0.722981	-0.684178	0.543691
O	-0.259267	-1.06077	-0.316759
H	-1.70634	-0.0112458	-1.4348
H	-0.582833	2.23028	-0.281768
H	1.43534	1.25771	1.32332
H	1.34182	-1.48016	0.989448
C	5.50263	-0.539959	0.917005
C	6.05181	-0.348159	-0.333099
N	5.1938	0.312901	-1.14754
C	4.11643	0.530377	-0.405522
N	4.25338	0.0350942	0.847287
H	5.89917	-1.02867	1.82114
H	7.05177	-0.674924	-0.661963
H	3.19902	1.04749	-0.729846
H	3.54321	0.0804978	1.61856
