18
  This energy is -0.8882 and Call times are: 71776
C	0.347688	1.03905	0.293066
C	1.1538	-0.0565397	0.394255
C	0.371382	-1.1611	-0.0616831
C	-0.843785	-0.642987	-0.401241
O	-0.875942	0.699316	-0.191003
H	0.524295	2.10107	0.530079
H	2.19495	-0.0841073	0.753889
H	0.685282	-2.21535	-0.12584
H	-1.75584	-1.11786	-0.798621
C	6.41362	-0.574864	0.468951
C	5.92721	0.657555	0.850643
N	4.86266	1.0185	0.0937009
C	4.68931	0.0138184	-0.754352
N	5.59944	-0.971407	-0.568376
H	7.25352	-1.17766	0.849405
H	6.32533	1.29276	1.65864
H	3.91135	-0.0517456	-1.53198
H	5.67119	-1.86676	-1.11101
