18
  This energy is -0.8847 and Call times are: 180308
C	-0.553318	-0.126255	0.981988
C	-1.19707	0.144895	-0.189522
C	-0.176886	0.230525	-1.18552
C	1.00023	0.00414229	-0.534727
O	0.78909	-0.215612	0.789714
H	-0.931799	-0.276342	2.00643
H	-2.28154	0.271872	-0.337466
H	-0.313108	0.437094	-2.25924
H	2.04123	-0.026799	-0.896119
C	4.74001	0.894333	-0.386871
C	4.91702	0.502767	0.923276
N	5.74418	-0.567509	1.00588
C	6.07904	-0.83888	-0.248255
N	5.49923	0.0143651	-1.1254
H	4.14726	1.70971	-0.831112
H	4.46271	0.973342	1.81041
H	6.74552	-1.6511	-0.580444
H	5.60743	0.00697916	-2.16919
