18
  This energy is -0.9687 and Call times are: 97477
C	-0.131074	-0.693355	0.887964
C	-0.677279	0.555877	0.849813
C	-0.297021	1.11055	-0.410288
C	0.447986	0.151313	-1.03093
O	0.559559	-0.957064	-0.252428
H	-0.160716	-1.48102	1.65865
H	-1.28681	1.03837	1.63069
H	-0.553106	2.10861	-0.800665
H	0.947436	0.135425	-2.01355
C	7.51885	-0.178826	0.561309
C	7.23906	-0.467098	-0.757691
N	5.96432	-0.130863	-1.07156
C	5.45524	0.364117	0.0484598
N	6.35322	0.356761	1.06196
H	8.4344	-0.312454	1.15917
H	7.93414	-0.911671	-1.48849
H	4.4303	0.746169	0.181769
H	6.19218	0.694671	2.04233
