18
  This energy is -0.5286 and Call times are: 39338
C	-0.445297	-0.605069	0.849708
C	-1.21612	-0.00835601	-0.104308
C	-0.306129	0.649394	-0.987148
C	0.940439	0.396558	-0.494689
O	0.874255	-0.368161	0.626844
H	-0.711362	-1.21722	1.72705
H	-2.31525	-0.0292762	-0.178865
H	-0.559438	1.23985	-1.8823
H	1.94053	0.6996	-0.84573
C	7.00067	-0.0446437	-0.756234
C	6.92264	-0.6604	0.474985
N	5.73931	-0.395137	1.07986
C	5.08572	0.382224	0.227127
N	5.80414	0.622568	-0.895236
H	7.79645	-0.0343746	-1.51792
H	7.69898	-1.29131	0.937688
H	4.07821	0.803437	0.37458
H	5.50639	1.20601	-1.71511
