18
  This energy is -1.0421 and Call times are: 16739
C	-0.291291	0.902686	0.62186
C	-0.609733	0.792685	-0.699832
C	-0.079865	-0.463238	-1.12646
C	0.515597	-1.00984	-0.0278191
O	0.39605	-0.189208	1.04888
H	-0.493658	1.697	1.35899
H	-1.16233	1.52272	-1.31285
H	-0.139948	-0.900574	-2.13603
H	1.05049	-1.96302	0.115694
C	5.41634	-0.579326	0.8848
C	4.13944	-0.773519	0.402122
N	3.87192	0.0691061	-0.624972
C	4.97863	0.783325	-0.77889
N	5.93924	0.430063	0.107694
H	5.9714	-1.07158	1.69913
H	3.40642	-1.50653	0.776577
H	5.13936	1.5778	-1.52535
H	6.89942	0.845872	0.187838
