18
  This energy is -1.3515 and Call times are: 164510
C	0.62539	0.939496	-0.112405
C	-0.095469	0.67235	1.01426
C	-0.738664	-0.58105	0.778874
C	-0.354072	-0.969193	-0.470849
O	0.479059	-0.0524354	-1.02983
H	1.27397	1.78948	-0.380973
H	-0.167091	1.29542	1.92021
H	-1.40813	-1.12301	1.46604
H	-0.600432	-1.8632	-1.06693
C	4.13181	1.11002	-0.284656
C	4.29899	0.0507889	-1.15139
N	4.60335	-1.08646	-0.480172
C	4.6249	-0.734097	0.798106
N	4.34688	0.580215	0.96804
H	3.88331	2.16803	-0.464642
H	4.20546	0.0867792	-2.24903
H	4.83864	-1.39872	1.65064
H	4.30342	1.09715	1.88026
