18
  This energy is -1.3674 and Call times are: 8243
C	0.626695	-0.919318	-0.220247
C	0.484741	0.0996135	-1.11579
C	-0.364105	1.05944	-0.48467
C	-0.665934	0.542312	0.74083
O	-0.0692834	-0.665666	0.919177
H	1.18815	-1.86652	-0.273446
H	0.932828	0.16842	-2.12007
H	-0.705013	2.0204	-0.902328
H	-1.28556	0.930615	1.56577
C	5.00975	-0.890209	0.576863
C	4.90453	0.417809	1.00014
N	4.25516	1.17696	0.0844343
C	3.95866	0.343076	-0.903161
N	4.39246	-0.915185	-0.653792
H	5.46504	-1.7755	1.04857
H	5.28553	0.827362	1.94985
H	3.42503	0.601334	-1.83202
H	4.27998	-1.7506	-1.27884
