18
  This energy is -1.0795 and Call times are: 105135
C	-1.0271	-0.195286	-0.439685
C	0.0430089	-1.00073	-0.697553
C	1.13941	-0.437123	0.0238209
C	0.642499	0.662978	0.65883
O	-0.679084	0.825786	0.386938
H	-2.07495	-0.240721	-0.779108
H	0.0587226	-1.90139	-1.3321
H	2.17421	-0.81392	0.0597859
H	1.12018	1.40175	1.32313
C	4.71074	0.691359	-0.817153
C	5.39519	1.09777	0.30868
N	5.82391	0.0339543	1.03049
C	5.40701	-1.02838	0.355016
N	4.7308	-0.68459	-0.766654
H	4.22694	1.26479	-1.62379
H	5.58736	2.13953	0.613066
H	5.56958	-2.08115	0.636923
H	4.30326	-1.34112	-1.46482
