18
  This energy is -1.686 and Call times are: 84887
C	0.721326	-0.545737	-0.684296
C	0.749542	-0.690626	0.671648
C	-0.294926	0.143081	1.17577
C	-0.869199	0.723838	0.083385
O	-0.261095	0.314466	-1.06101
H	1.33835	-0.993734	-1.48043
H	1.43691	-1.32132	1.25803
H	-0.578385	0.287309	2.23073
H	-1.70544	1.43586	-0.0113112
C	5.23093	0.999716	0.607057
C	6.23476	0.202027	0.0999487
N	5.72424	-0.87433	-0.546069
C	4.4087	-0.744876	-0.440135
N	4.06102	0.36923	0.246506
H	5.26516	1.94006	1.17988
H	7.31823	0.383868	0.188637
H	3.65396	-1.4371	-0.846855
H	3.08602	0.691363	0.462974
