18
  This energy is -1.1991 and Call times are: 24189
C	-0.336002	0.915139	-0.579676
C	-0.327371	-0.333949	-1.12747
C	0.151489	-1.20676	-0.103263
C	0.393211	-0.41399	0.979999
O	0.101012	0.884861	0.706836
H	-0.62674	1.89382	-0.995489
H	-0.628051	-0.612736	-2.1502
H	0.295907	-2.29682	-0.173992
H	0.76876	-0.649741	1.98927
C	5.83296	-0.0480301	-0.561937
C	5.43889	-0.817111	0.512477
N	4.18331	-0.496176	0.908747
C	3.79991	0.468335	0.0833077
N	4.7595	0.774392	-0.821736
H	6.77006	-0.0284283	-1.14072
H	6.03804	-1.59782	1.00883
H	2.82693	0.985383	0.0972873
H	4.69757	1.49995	-1.57738
