18
  This energy is -1.087 and Call times are: 185050
C	-0.906988	-0.678578	0.057485
C	-0.499897	0.0873271	1.11012
C	0.657619	0.790947	0.657136
C	0.855686	0.392901	-0.632322
O	-0.090583	-0.50441	-1.01497
H	-1.7503	-1.37984	-0.0534606
H	-0.967783	0.150474	2.1057
H	1.26563	1.5081	1.23168
H	1.62294	0.670657	-1.37355
C	4.54439	0.974682	-0.0725592
C	4.64335	-0.0279987	-1.01383
N	5.49065	-1.00239	-0.602542
C	5.91572	-0.605703	0.589341
N	5.374	0.580696	0.953462
H	3.96175	1.90952	-0.0606452
H	4.11856	-0.0658059	-1.98234
H	6.62383	-1.14579	1.23827
H	5.55203	1.10124	1.84711
