18
  This energy is -1.0536 and Call times are: 142524
C	0.462675	0.760152	-0.703209
C	-0.870394	0.748482	-0.414822
C	-1.06472	-0.337631	0.492214
C	0.16676	-0.89379	0.678035
O	1.11137	-0.23596	-0.0444473
H	1.06442	1.41671	-1.35289
H	-1.63971	1.43576	-0.801986
H	-2.01465	-0.659887	0.948135
H	0.498126	-1.74846	1.2904
C	4.16	-0.796592	0.583893
C	4.81745	0.290511	1.11972
N	5.45757	0.997627	0.15705
C	5.19822	0.351655	-0.971703
N	4.41962	-0.737159	-0.767125
H	3.54623	-1.58209	1.05274
H	4.84137	0.577294	2.18369
H	5.55342	0.632702	-1.97623
H	4.07868	-1.40822	-1.49836
