18
  This energy is -0.6875 and Call times are: 15678
C	1.12748	0.0508226	-0.112301
C	0.504532	0.223744	1.0887
C	-0.89323	0.0899836	0.827002
C	-1.00105	-0.152869	-0.510822
O	0.223237	-0.18018	-1.10023
H	2.19362	0.0682399	-0.392113
H	0.981467	0.425275	2.06134
H	-1.7155	0.167186	1.55638
H	-1.87975	-0.321566	-1.15477
C	5.70878	0.156326	-1.15069
C	5.06805	-0.737802	-0.319345
N	5.53845	-0.649566	0.948507
C	6.46747	0.295708	0.903871
N	6.60768	0.812576	-0.339825
H	5.59257	0.365097	-2.22607
H	4.27477	-1.445	-0.611644
H	7.07522	0.64848	1.75265
H	7.27416	1.56909	-0.630934
