18
  This energy is -1.0942 and Call times are: 70718
C	0.995454	-0.452131	-0.301746
C	0.229191	-0.974426	0.698465
C	-0.928771	-0.14212	0.77915
C	-0.7679	0.815311	-0.178879
O	0.401782	0.641254	-0.848624
H	1.96972	-0.761967	-0.714133
H	0.456578	-1.85724	1.31736
H	-1.7777	-0.251309	1.47305
H	-1.40483	1.66355	-0.479
C	5.59638	-0.806056	-0.500418
C	5.22883	0.413033	-1.02944
N	4.41634	1.08885	-0.181124
C	4.28036	0.292044	0.87018
N	4.97266	-0.862735	0.725935
H	6.23631	-1.61044	-0.896634
H	5.53534	0.817068	-2.00804
H	3.68547	0.505083	1.77292
H	5.02441	-1.65105	1.41669
