18
  This energy is -1.7239 and Call times are: 186714
C	0.273103	0.131905	-1.09289
C	0.124541	-1.09711	-0.520324
C	-0.214852	-0.853662	0.84557
C	-0.243728	0.502623	0.987101
O	0.051867	1.12036	-0.186795
H	0.530993	0.432872	-2.12156
H	0.242155	-2.07683	-1.01064
H	-0.412701	-1.60711	1.62485
H	-0.45807	1.14232	1.85894
C	4.38519	0.661467	0.930711
C	3.51533	-0.408164	0.911069
N	3.42245	-0.939671	-0.332066
C	4.23161	-0.202575	-1.08078
N	4.83548	0.77589	-0.365566
H	4.70497	1.32712	1.74814
H	2.95309	-0.805906	1.77161
H	4.419	-0.335923	-2.15844
H	5.51687	1.48633	-0.72922
