18
  This energy is -1.0761 and Call times are: 165732
C	0.658639	0.779543	-0.494883
C	0.855573	-0.559057	-0.667336
C	-0.158378	-1.20589	0.103137
C	-0.885415	-0.205457	0.6784
O	-0.400413	1.01364	0.32403
H	1.19595	1.65507	-0.894873
H	1.63652	-1.04248	-1.27604
H	-0.319895	-2.29054	0.21058
H	-1.75892	-0.229928	1.35045
C	4.21888	0.167223	0.433946
C	4.73519	-1.00716	-0.0714106
N	6.01468	-0.840108	-0.485572
C	6.29107	0.433072	-0.238091
N	5.24048	1.08302	0.316366
H	3.22976	0.408031	0.854883
H	4.20742	-1.97202	-0.144601
H	7.24717	0.941016	-0.443229
H	5.20998	2.09229	0.602219
