18
  This energy is -0.6309 and Call times are: 52765
C	-0.632145	0.608229	0.718924
C	0.701116	0.398729	0.916155
C	1.13843	-0.399856	-0.184363
C	0.0337957	-0.607862	-0.956954
O	-1.05648	0.000647446	-0.420283
H	-1.3799	1.16408	1.30812
H	1.31505	0.769367	1.7527
H	2.15884	-0.771496	-0.370741
H	-0.105482	-1.16317	-1.89902
C	6.72374	-0.476668	0.452554
C	7.73149	0.160222	1.14535
N	8.70631	0.587888	0.306688
C	8.30483	0.217719	-0.90179
N	7.11498	-0.427746	-0.866812
H	5.78712	-0.945608	0.793673
H	7.77266	0.318809	2.2353
H	8.84373	0.394052	-1.84663
H	6.59044	-0.816798	-1.68824
