18
  This energy is -0.6593 and Call times are: 94216
C	0.221433	-0.166001	-1.09991
C	1.14718	-0.397675	-0.125392
C	0.503725	-0.0780425	1.10908
C	-0.758424	0.320738	0.779949
O	-0.948147	0.273214	-0.564951
H	0.27105	-0.273674	-2.19591
H	2.1796	-0.75755	-0.262127
H	0.938059	-0.14082	2.11978
H	-1.60411	0.657803	1.4016
C	7.00751	0.578534	0.187899
C	5.80947	0.768668	0.843404
N	4.85614	-0.0715406	0.372535
C	5.46046	-0.780221	-0.571493
N	6.75879	-0.425753	-0.720798
H	7.98681	1.07042	0.300017
H	5.61589	1.49705	1.64767
H	4.999	-1.57134	-1.18421
H	7.44516	-0.837511	-1.39947
