18
  This energy is -1.2376 and Call times are: 147551
C	0.6883	-0.882577	0.183581
C	1.01436	0.388068	0.557108
C	-0.0875874	1.20659	0.162329
C	-0.989751	0.36388	-0.417593
O	-0.532263	-0.915845	-0.413187
H	1.23148	-1.8365	0.284773
H	1.93818	0.716052	1.06017
H	-0.188015	2.29539	0.298449
H	-1.97982	0.548854	-0.865698
C	4.56841	-0.299523	1.08877
C	4.91378	0.959736	0.645909
N	5.24386	0.942023	-0.668339
C	5.10378	-0.323412	-1.03939
N	4.69827	-1.11159	-0.0157065
H	4.25003	-0.663113	2.07871
H	4.93071	1.88074	1.25114
H	5.28498	-0.727352	-2.04846
H	4.51727	-2.14449	-0.055752
