18
  This energy is -1 and Call times are: 182703
C	0.416742	-0.961163	0.434619
C	-0.906135	-0.805542	0.1411
C	-1.03817	0.518191	-0.378915
C	0.215683	1.05463	-0.357265
O	1.11665	0.165031	0.136582
H	0.977368	-1.8128	0.853732
H	-1.70849	-1.54839	0.277132
H	-1.96324	1.00574	-0.726233
H	0.592601	2.04483	-0.661702
C	4.53805	-0.243282	0.445169
C	4.81198	0.504721	-0.680264
N	6.14654	0.581966	-0.902737
C	6.69844	-0.115464	0.0809405
N	5.77036	-0.633259	0.920073
H	3.58519	-0.516554	0.925695
H	4.07056	0.990046	-1.33572
H	7.77734	-0.278895	0.23421
H	5.95445	-1.22	1.77043
