18
  This energy is -0.9621 and Call times are: 72892
C	-1.08934	-0.125755	0.289701
C	-0.230056	0.658582	1.00162
C	1.02981	0.562847	0.335522
C	0.829201	-0.27154	-0.724632
O	-0.459317	-0.70149	-0.767944
H	-2.15865	-0.35364	0.430718
H	-0.460302	1.24566	1.90517
H	1.97061	1.06095	0.61995
H	1.51287	-0.63263	-1.51042
C	5.26139	1.12131	0.355332
C	4.66027	0.0394852	0.963154
N	4.91255	-1.1054	0.283369
C	5.66731	-0.735233	-0.742272
N	5.90571	0.597715	-0.743249
H	5.27577	2.19104	0.618046
H	4.04905	0.0645399	1.88001
H	6.07269	-1.39953	-1.5224
H	6.47325	1.13076	-1.44682
