18
  This energy is -1.3825 and Call times are: 212088
C	0.945207	0.554399	0.292621
C	0.967485	-0.715648	-0.204228
C	-0.395986	-1.06371	-0.449013
C	-1.1311	0.0243729	-0.0801411
O	-0.328223	1.02192	0.375169
H	1.75599	1.22555	0.620416
H	1.85503	-1.34433	-0.380651
H	-0.775778	-2.0159	-0.852963
H	-2.21745	0.211232	-0.0929418
C	6.34841	-0.0740155	-0.977266
C	7.61182	0.466464	-0.86404
N	8.06545	0.385628	0.410401
C	7.08718	-0.202762	1.08524
N	6.02991	-0.49965	0.293002
H	5.67587	-0.18226	-1.84301
H	8.20417	0.913293	-1.67909
H	7.09285	-0.439977	2.16131
H	5.13758	-0.965345	0.589857
