18
  This energy is -1.0132 and Call times are: 53575
C	0.668267	0.333167	0.853709
C	0.414338	1.12545	-0.227117
C	-0.454715	0.368724	-1.07106
C	-0.655134	-0.819177	-0.431451
O	0.0231893	-0.858132	0.745568
H	1.2826	0.499374	1.75383
H	0.800291	2.14088	-0.411583
H	-0.87654	0.68079	-2.03996
H	-1.25	-1.70587	-0.705589
C	4.24708	0.417266	-0.319925
C	4.72697	0.279686	0.965347
N	5.98073	-0.23471	0.966355
C	6.27751	-0.415561	-0.313426
N	5.26456	-0.0375566	-1.12867
H	3.28561	0.794074	-0.703486
H	4.19101	0.542373	1.89195
H	7.22243	-0.821544	-0.709072
H	5.25592	-0.0824061	-2.17709
