18
  This energy is -0.9069 and Call times are: 60082
C	0.995513	0.542139	-0.0379456
C	0.862083	-0.703137	0.502293
C	-0.518728	-1.04233	0.366546
C	-1.1072	0.0256114	-0.244662
O	-0.197196	1.00246	-0.498992
H	1.87336	1.19895	-0.152984
H	1.65634	-1.32088	0.951344
H	-1.00793	-1.97535	0.689421
H	-2.15061	0.210468	-0.54858
C	4.72737	0.522931	-0.717414
C	5.52195	1.13371	0.229547
N	6.29443	0.227903	0.877078
C	5.98027	-0.940377	0.333893
N	5.03992	-0.815453	-0.632407
H	3.98635	0.932323	-1.42227
H	5.55169	2.21175	0.457144
H	6.40854	-1.91846	0.606232
H	4.62752	-1.59048	-1.20731
