18
  This energy is -1.2715 and Call times are: 85016
C	0.206726	-1.10984	0.109214
C	0.781731	-0.176424	0.920684
C	0.282835	1.08675	0.478402
C	-0.552998	0.813734	-0.564296
O	-0.611401	-0.522818	-0.803522
H	0.297141	-2.20811	0.0795901
H	1.4865	-0.359088	1.74774
H	0.523884	2.0782	0.894364
H	-1.15675	1.47304	-1.20931
C	5.34714	1.01313	-0.398412
C	5.87639	0.20528	0.58567
N	5.09953	-0.885699	0.792493
C	4.09218	-0.75516	-0.0600406
N	4.19588	0.373652	-0.800729
H	5.69663	1.96604	-0.826609
H	6.80486	0.390079	1.15015
H	3.25167	-1.457	-0.183345
H	3.52676	0.699609	-1.54053
