18
  This energy is -1.2685 and Call times are: 57191
C	0.533964	-0.988246	-0.157015
C	0.557978	0.0105558	-1.08556
C	-0.216294	1.07632	-0.533509
C	-0.645104	0.634715	0.68365
O	-0.196236	-0.624216	0.929862
H	0.990245	-1.99175	-0.150719
H	1.0696	-0.00193557	-2.06136
H	-0.424349	2.05446	-0.99618
H	-1.26615	1.11412	1.45807
C	4.45494	-0.358541	1.09384
C	4.1312	0.857107	0.529448
N	4.5682	0.93318	-0.751082
C	5.16078	-0.230847	-0.980225
N	5.11894	-1.0444	0.101427
H	4.26609	-0.770366	2.09797
H	3.59014	1.68066	1.02327
H	5.64161	-0.539575	-1.92241
H	5.51657	-2.01308	0.170842
