18
  This energy is -1.356 and Call times are: 95117
C	0.561043	-0.351979	0.920729
C	1.03974	-0.539881	-0.342565
C	0.0665797	0.0310746	-1.2184
C	-0.920898	0.517478	-0.412994
O	-0.635383	0.292218	0.896491
H	0.971339	-0.62652	1.90639
H	1.98348	-1.03126	-0.628947
H	0.105764	0.0703976	-2.31886
H	-1.86466	1.03737	-0.645961
C	4.34319	0.557386	0.97319
C	4.42505	-0.805835	0.783271
N	4.87685	-1.0997	-0.460124
C	5.07452	0.0767499	-1.03937
N	4.76722	1.10696	-0.216074
H	4.02384	1.15536	1.84151
H	4.16621	-1.58262	1.52115
H	5.44313	0.241148	-2.06472
H	4.83842	2.12954	-0.440871
