18
  This energy is -1.7287 and Call times are: 63910
C	-0.120781	0.395016	-1.0563
C	0.886642	-0.454715	-0.704974
C	0.705245	-0.722138	0.686319
C	-0.397013	-0.0122197	1.06237
O	-0.914252	0.67589	0.0107144
H	-0.378388	0.864803	-2.01973
H	1.6781	-0.85322	-1.35986
H	1.3281	-1.36921	1.32463
H	-0.907016	0.0854738	2.03479
C	4.88493	-0.903534	-0.749336
C	5.57783	0.28715	-0.806848
N	5.23275	1.10332	0.218478
C	4.32921	0.42156	0.909446
N	4.08509	-0.794561	0.366264
H	4.90379	-1.79109	-1.40158
H	6.32057	0.571928	-1.5698
H	3.81461	0.76572	1.82102
H	3.41432	-1.51683	0.726349
