18
  This energy is -0.9884 and Call times are: 36782
C	-1.02746	0.252303	-0.408746
C	-0.33055	-0.848243	-0.813085
C	0.897727	-0.822697	-0.0845247
C	0.842972	0.291205	0.700712
O	-0.325741	0.959654	0.515515
H	-2.01872	0.637395	-0.699192
H	-0.649432	-1.60239	-1.55042
H	1.72052	-1.5531	-0.144672
H	1.56074	0.711843	1.42399
C	4.5798	0.660877	0.655475
C	5.49787	-0.262359	1.10928
N	6.15877	-0.841887	0.0778414
C	5.65264	-0.28031	-1.01169
N	4.69709	0.632508	-0.716248
H	3.87482	1.31427	1.19365
H	5.6952	-0.520688	2.16245
H	5.94555	-0.500687	-2.05086
H	4.14985	1.20882	-1.40155
