18
  This energy is -1.1874 and Call times are: 170336
C	-0.391237	-1.06454	-0.00909482
C	-1.21723	0.0179203	-0.0890158
C	-0.365353	1.16367	-0.0478386
C	0.906004	0.680208	0.0536097
O	0.908907	-0.678608	0.0785979
H	-0.602326	-2.14652	-0.00474612
H	-2.31616	0.010331	-0.168946
H	-0.672473	2.22104	-0.0894951
H	1.88022	1.19242	0.115252
C	5.42367	0.765242	0.724752
C	5.59036	0.671798	-0.640763
N	4.83163	-0.32455	-1.15858
C	4.19667	-0.847226	-0.118266
N	4.51994	-0.224741	1.04001
H	5.86935	1.44354	1.46962
H	6.24448	1.30545	-1.26161
H	3.48382	-1.68697	-0.1484
H	4.1522	-0.452803	1.99605
