18
  This energy is -1.0434 and Call times are: 91320
C	-0.800979	-0.731014	0.332345
C	0.278145	-1.11647	-0.407443
C	1.04706	0.067642	-0.623684
C	0.369929	1.07217	0.00305056
O	-0.76109	0.602365	0.592197
H	-1.65542	-1.30193	0.73139
H	0.509486	-2.13271	-0.765
H	1.9931	0.152036	-1.18224
H	0.585354	2.14883	0.101217
C	5.20696	-0.431041	1.0951
C	4.4391	0.611441	0.621007
N	4.68579	0.842602	-0.691326
C	5.6032	-0.0530671	-1.03008
N	5.95046	-0.844532	0.0123175
H	5.27466	-0.892526	2.09309
H	3.71151	1.20093	1.20236
H	6.05516	-0.173171	-2.02785
H	6.65234	-1.62455	-0.00165912
