18
  This energy is -1.05 and Call times are: 154002
C	-0.0736947	-0.433754	1.04538
C	0.1204	0.897175	0.818822
C	0.157771	1.05077	-0.600731
C	-0.0167858	-0.199856	-1.11632
O	-0.159759	-1.11874	-0.125254
H	-0.166761	-1.01026	1.98039
H	0.226603	1.69112	1.57544
H	0.298711	1.98748	-1.16358
H	-0.0578537	-0.56265	-2.15649
C	3.88733	-0.070513	-0.376935
C	4.71313	1.03201	-0.437196
N	5.93178	0.759064	0.0890156
C	5.86226	-0.507972	0.474259
N	4.64989	-1.05251	0.214979
H	2.84572	-0.220781	-0.702516
H	4.45145	2.01953	-0.850937
H	6.66986	-1.08606	0.951579
H	4.34828	-2.03548	0.424865
