18
  This energy is -0.421 and Call times are: 168539
C	0.163885	-0.72786	0.854261
C	1.16446	0.0572379	0.361461
C	0.5772	0.824783	-0.690263
C	-0.730394	0.440964	-0.747312
O	-1.00027	-0.506561	0.188838
H	0.152526	-1.4745	1.66522
H	2.21107	0.0923406	0.704183
H	1.07796	1.57331	-1.32511
H	-1.55886	0.76229	-1.39972
C	5.98747	0.595745	0.927363
C	5.3541	-0.425729	0.251658
N	6.1192	-0.885046	-0.768224
C	7.22302	-0.151311	-0.725388
N	7.19196	0.755818	0.279471
H	5.67667	1.19992	1.79449
H	4.35877	-0.83952	0.481771
H	8.08541	-0.236586	-1.40601
H	7.94244	1.44901	0.51932
