18
  This energy is -1.1573 and Call times are: 84343
C	0.214713	-0.516572	-0.986637
C	-0.398753	0.699661	-0.917256
C	-0.490751	1.01241	0.47337
C	0.0746168	-0.0403149	1.13102
O	0.51086	-0.983275	0.254933
H	0.493176	-1.14693	-1.84708
H	-0.751139	1.31486	-1.76073
H	-0.92865	1.9183	0.922472
H	0.225074	-0.235517	2.2055
C	3.9457	-0.431646	0.536732
C	4.20006	0.890046	0.237439
N	5.3966	1.02892	-0.383446
C	5.8827	-0.201938	-0.469007
N	5.04504	-1.11821	0.0717004
H	3.08876	-0.916063	1.03124
H	3.54164	1.74592	0.458379
H	6.84733	-0.488634	-0.917932
H	5.20295	-2.15423	0.126277
