18
  This energy is -1.0959 and Call times are: 200462
C	-1.04326	-0.115559	-0.429717
C	-0.345911	1.05394	-0.509347
C	0.904873	0.808004	0.13499
C	0.861445	-0.490079	0.551484
O	-0.321023	-1.06935	0.215
H	-2.0482	-0.393374	-0.787725
H	-0.678903	1.99537	-0.975099
H	1.73448	1.52083	0.268145
H	1.59685	-1.1101	1.09001
C	5.84634	0.924851	-0.334652
C	4.89541	0.897547	0.66341
N	4.34464	-0.335165	0.77996
C	4.95157	-1.06981	-0.142291
N	5.86569	-0.355626	-0.840808
H	6.4892	1.73775	-0.708081
H	4.59686	1.74523	1.3015
H	4.76481	-2.13601	-0.348604
H	6.47339	-0.709845	-1.61958
