18
  This energy is -1.0269 and Call times are: 90464
C	0.230802	-1.10925	-0.0519958
C	-0.895356	-0.624738	0.545829
C	-0.829957	0.795608	0.409962
C	0.330392	1.05367	-0.258895
O	0.990881	-0.0981339	-0.54893
H	0.601277	-2.13858	-0.187915
H	-1.69218	-1.20893	1.03356
H	-1.56599	1.53161	0.771408
H	0.791864	2.00061	-0.583859
C	4.33502	-1.01772	-0.528314
C	5.11412	-0.847561	0.59649
N	5.21014	0.462218	0.930812
C	4.49332	1.10217	0.0168879
N	3.9452	0.253871	-0.885076
H	4.04023	-1.9235	-1.08167
H	5.60868	-1.6464	1.17278
H	4.33665	2.19148	-0.0386819
H	3.33881	0.515062	-1.70075
