18
  This energy is -0.9442 and Call times are: 27001
C	-0.391199	0.340418	-1.0087
C	0.138835	-0.900828	-0.811863
C	0.513322	-0.95213	0.565543
C	0.179072	0.262295	1.08882
O	-0.374547	1.06419	0.141467
H	-0.808965	0.822858	-1.90758
H	0.2545	-1.70012	-1.56143
H	0.977069	-1.79911	1.09626
H	0.282366	0.673354	2.10647
C	5.13688	1.13579	0.261678
C	4.18317	0.14002	0.267509
N	4.7202	-1.05299	-0.0857953
C	6.0022	-0.798309	-0.309955
N	6.30312	0.507297	-0.113921
H	5.0704	2.21129	0.490593
H	3.1172	0.261034	0.520315
H	6.76459	-1.53112	-0.619749
H	7.24532	0.955422	-0.226586
