18
  This energy is -0.7531 and Call times are: 94408
C	1.06627	0.186426	-0.33869
C	0.483801	0.900707	0.666747
C	-0.840426	0.381898	0.798578
C	-0.950272	-0.60362	-0.137937
O	0.204817	-0.736626	-0.841565
H	2.07352	0.238125	-0.783696
H	0.940808	1.71159	1.25642
H	-1.61428	0.710553	1.51078
H	-1.78555	-1.27379	-0.399514
C	6.2479	-0.852067	0.677096
C	4.94282	-0.407463	0.661589
N	4.77658	0.588376	-0.242391
C	5.97398	0.760907	-0.785623
N	6.89519	-0.083876	-0.264756
H	6.74523	-1.63465	1.27188
H	4.11819	-0.787395	1.28648
H	6.23169	1.49187	-1.56889
H	7.9093	-0.142501	-0.528199
