18
  This energy is -0.5431 and Call times are: 163933
C	-1.08334	-0.0716151	-0.328098
C	-0.0631002	0.118166	-1.21324
C	1.13151	0.154073	-0.431096
C	0.735818	-0.0169359	0.862952
O	-0.613606	-0.156352	0.944373
H	-2.17202	-0.162232	-0.475785
H	-0.143675	0.222414	-2.30719
H	2.16131	0.291697	-0.798056
H	1.30931	-0.0575922	1.80354
C	6.30574	0.996648	0.595018
C	5.37509	0.0331824	0.268255
N	5.94625	-0.983779	-0.421732
C	7.22635	-0.652468	-0.522634
N	7.49337	0.53314	0.0745506
H	6.21012	1.9476	1.14282
H	4.30175	0.0536225	0.517999
H	8.01138	-1.24177	-1.02332
H	8.42717	1.00868	0.130437
