18
  This energy is -1.0198 and Call times are: 167738
C	0.699942	0.884775	0.116855
C	0.120345	0.265858	1.18521
C	-0.679498	-0.785234	0.641544
C	-0.518066	-0.715837	-0.711045
O	0.321133	0.298287	-1.04914
H	1.39121	1.74124	0.0546529
H	0.243678	0.52363	2.24937
H	-1.29961	-1.50444	1.20037
H	-0.939705	-1.32186	-1.52971
C	5.63765	0.496073	0.509731
C	4.75776	1.09595	-0.366111
N	3.79216	0.229839	-0.758496
C	4.07194	-0.903042	-0.128474
N	5.17553	-0.793649	0.648507
H	6.53017	0.882796	1.02683
H	4.80237	2.13819	-0.721927
H	3.50162	-1.84315	-0.200329
H	5.59856	-1.54765	1.24331
