18
  This energy is -1.4375 and Call times are: 3317
C	-0.539834	-0.0908016	-0.993345
C	-0.930817	-0.781	0.116219
C	-0.018949	-0.407815	1.15031
C	0.848765	0.477488	0.58138
O	0.545469	0.68276	-0.727393
H	-0.945233	-0.0638029	-2.01813
H	-1.77652	-1.48254	0.198254
H	-0.017073	-0.762483	2.19353
H	1.71214	1.02374	0.995437
C	4.20038	-0.894954	-0.578383
C	5.13531	-0.00978917	-1.07186
N	5.49442	0.896733	-0.130709
C	4.78496	0.575174	0.942554
N	3.98934	-0.498369	0.723297
H	3.6874	-1.75048	-1.04579
H	5.55718	-0.00901456	-2.09013
H	4.80958	1.09236	1.91526
H	3.33615	-0.94375	1.4134
