18
  This energy is -0.9853 and Call times are: 73685
C	0.534447	-0.919907	0.393115
C	0.864848	0.34239	0.790377
C	-0.0179675	1.21739	0.0867258
C	-0.809912	0.412555	-0.678411
O	-0.48638	-0.895813	-0.503737
H	0.944439	-1.90471	0.671176
H	1.65134	0.628632	1.50703
H	-0.0520448	2.31694	0.149339
H	-1.62827	0.64523	-1.37941
C	5.29355	1.14468	-0.193263
C	5.57091	0.441701	0.960011
N	5.21855	-0.860877	0.83496
C	4.72446	-0.965589	-0.391229
N	4.74785	0.216369	-1.05155
H	5.44096	2.20448	-0.455203
H	6.01897	0.851056	1.88008
H	4.33171	-1.88424	-0.856044
H	4.41391	0.392126	-2.03076
