18
  This energy is -1.2135 and Call times are: 107652
C	0.214297	0.628295	0.919632
C	-0.309343	-0.628603	0.999527
C	-0.432365	-1.08727	-0.347546
C	0.0269585	-0.0701711	-1.1317
O	0.425977	0.985461	-0.374445
H	0.47871	1.36109	1.6996
H	-0.581656	-1.17767	1.9152
H	-0.819026	-2.06267	-0.683966
H	0.120198	0.0244311	-2.22605
C	4.41069	1.00059	-0.191386
C	3.88634	-0.198544	0.242517
N	4.85245	-1.14222	0.354814
C	5.97191	-0.530836	-0.0080434
N	5.75811	0.76272	-0.34656
H	3.93618	1.9739	-0.393966
H	2.82822	-0.399705	0.476558
H	6.9759	-0.983539	-0.0440126
H	6.48103	1.45294	-0.666306
