18
  This energy is -1.4794 and Call times are: 179523
C	0.136972	0.213274	1.10551
C	-0.135015	1.19649	0.200152
C	-0.23572	0.544511	-1.06669
C	-0.0163826	-0.779572	-0.82365
O	0.212921	-0.999894	0.497671
H	0.296418	0.247102	2.19578
H	-0.252903	2.2729	0.403973
H	-0.447212	1.01491	-2.04039
H	0.00294154	-1.65291	-1.49607
C	3.8269	0.787704	0.558163
C	3.56767	0.191411	-0.657723
N	4.5579	-0.667427	-1.00175
C	5.42812	-0.604174	-0.00309256
N	5.03264	0.259308	0.962093
H	3.25766	1.52604	1.14499
H	2.68387	0.365502	-1.2929
H	6.37134	-1.16891	0.0721141
H	5.5466	0.483547	1.84912
