18
  This energy is -1.2916 and Call times are: 165902
C	0.0943411	1.13021	-0.0110664
C	-1.04857	0.496437	0.379399
C	-0.781558	-0.901434	0.257822
C	0.500946	-0.998478	-0.196203
O	1.05108	0.232597	-0.365968
H	0.349827	2.20036	-0.0801201
H	-1.98565	0.966183	0.718971
H	-1.47046	-1.731	0.48439
H	1.12795	-1.87333	-0.434418
C	4.31264	-1.1472	0.184165
C	3.8701	-0.100632	0.965185
N	4.26923	1.09077	0.457479
C	4.95677	0.784479	-0.634357
N	5.01164	-0.55242	-0.842395
H	4.18391	-2.23679	0.28294
H	3.26997	-0.183858	1.88593
H	5.44124	1.50021	-1.31791
H	5.49464	-1.04249	-1.63474
