18
  This energy is -0.7501 and Call times are: 46542
C	-0.950022	0.11244	0.609275
C	-0.892528	0.421803	-0.717889
C	0.449769	0.151642	-1.12454
C	1.09404	-0.298965	-0.00998482
O	0.254285	-0.329341	1.05815
H	-1.77711	0.162133	1.3364
H	-1.71304	0.802101	-1.34735
H	0.876912	0.280827	-2.13199
H	2.13462	-0.625174	0.151317
C	5.93665	0.89201	0.689983
C	5.11885	-0.161592	1.03964
N	4.93951	-1.008	-0.00340135
C	5.64338	-0.481485	-0.996364
N	6.26313	0.664837	-0.628346
H	6.29737	1.75847	1.26676
H	4.655	-0.326193	2.02585
H	5.73934	-0.894295	-2.01352
H	6.87565	1.26602	-1.23222
