18
  This energy is -1.286 and Call times are: 193911
C	-0.304084	0.608895	-0.907293
C	0.960683	0.639455	-0.397584
C	0.951595	-0.244588	0.724246
C	-0.317924	-0.737333	0.80104
O	-1.09826	-0.22678	-0.187608
H	-0.758813	1.12872	-1.76651
H	1.81439	1.22572	-0.773839
H	1.79686	-0.480032	1.39072
H	-0.785299	-1.44756	1.50274
C	4.65545	0.55827	-0.977093
C	4.61298	1.04455	0.312431
N	5.08978	0.132803	1.19441
C	5.42676	-0.915113	0.45486
N	5.18413	-0.707917	-0.861116
H	4.35683	1.00863	-1.93706
H	4.24684	2.03693	0.622215
H	5.85551	-1.85996	0.825899
H	5.36441	-1.38317	-1.64393
