18
  This energy is -0.594 and Call times are: 72924
C	0.946005	0.615499	-0.112407
C	0.962142	-0.674322	0.330847
C	-0.400312	-1.10305	0.336033
C	-1.12875	-0.0373718	-0.10451
O	-0.32267	1.02078	-0.383002
H	1.75841	1.34229	-0.2768
H	1.84492	-1.26463	0.624683
H	-0.783928	-2.09186	0.63469
H	-2.21207	0.0928879	-0.261687
C	5.15758	-0.544552	0.0437273
C	6.01476	-0.312345	1.09846
N	7.12862	0.341409	0.688054
C	6.96308	0.514116	-0.61632
N	5.79006	-0.00264979	-1.05286
H	4.17503	-1.04053	-0.00256411
H	5.84946	-0.604816	2.14821
H	7.66964	1.01239	-1.29949
H	5.43083	0.00755165	-2.03882
