18
  This energy is -1.9441 and Call times are: 131760
C	-0.096268	-0.270079	1.09736
C	0.0487264	1.01775	0.672089
C	0.135756	0.951772	-0.752057
C	0.0362614	-0.370548	-1.07134
O	-0.105952	-1.13113	0.0459272
H	-0.201294	-0.699032	2.10742
H	0.0902325	1.92332	1.29843
H	0.258156	1.79602	-1.44945
H	0.0523292	-0.891301	-2.04284
C	4.04464	1.12419	-0.0502511
C	3.38151	0.507661	0.98961
N	3.13988	-0.796231	0.710351
C	3.65115	-0.987878	-0.498159
N	4.20808	0.140027	-0.999412
H	4.39994	2.1591	-0.17773
H	3.0731	0.980313	1.93636
H	3.64508	-1.93435	-1.06242
H	4.67535	0.244843	-1.93318
