18
  This energy is -0.5798 and Call times are: 127396
C	0.880073	-0.361907	0.617168
C	-0.292413	-1.05458	0.540605
C	-1.1419	-0.291697	-0.317595
C	-0.413533	0.79981	-0.689707
O	0.823754	0.773191	-0.128079
H	1.81687	-0.568055	1.16045
H	-0.534778	-2.00717	1.03852
H	-2.17386	-0.535202	-0.617372
H	-0.658707	1.65513	-1.34052
C	6.88417	0.681789	-0.372148
C	6.93115	-0.256829	0.63678
N	5.72829	-0.859307	0.800052
C	4.9381	-0.29659	-0.104147
N	5.58832	0.638952	-0.835964
H	7.65546	1.35474	-0.779315
H	7.81141	-0.510107	1.24983
H	3.875	-0.532229	-0.273081
H	5.18262	1.22081	-1.60933
