18
  This energy is -0.8347 and Call times are: 71455
C	-1.00806	0.378671	-0.356138
C	-0.721352	0.196511	0.964844
C	0.623493	-0.282462	1.01062
C	1.03989	-0.350713	-0.286424
O	0.0562025	0.0493639	-1.13455
H	-1.92007	0.732615	-0.864274
H	-1.38984	0.380929	1.82112
H	1.20503	-0.543246	1.90946
H	1.99909	-0.663212	-0.730861
C	6.37952	-0.236845	-0.849316
C	6.3107	0.908901	-0.0853302
N	5.28697	0.844878	0.80032
C	4.72284	-0.336094	0.58658
N	5.3452	-1.02614	-0.398354
H	7.06837	-0.536384	-1.65511
H	6.98139	1.7806	-0.157298
H	3.85162	-0.745384	1.12295
H	5.08868	-1.98057	-0.751233
