18
  This energy is -0.6224 and Call times are: 29376
C	0.598703	0.618909	0.738178
C	0.964605	-0.644943	0.378779
C	-0.022865	-1.0877	-0.553414
C	-0.905024	-0.0553299	-0.681374
O	-0.54086	0.995093	0.100296
H	1.05863	1.34468	1.42881
H	1.84187	-1.20886	0.734436
H	-0.0634421	-2.06316	-1.06422
H	-1.81906	0.0543841	-1.2878
C	6.11792	-1.10353	-0.391677
C	4.94496	-0.388575	-0.272726
N	5.17774	0.854762	0.213524
C	6.49012	0.910925	0.395536
N	7.10201	-0.245136	0.0452519
H	6.31539	-2.12823	-0.744559
H	3.93488	-0.7476	-0.529047
H	7.05492	1.77424	0.782729
H	8.13019	-0.448763	0.0967043
