18
  This energy is -0.6565 and Call times are: 72188
C	0.18938	-1.01119	-0.477522
C	-1.06818	-0.541157	-0.236713
C	-0.897117	0.743651	0.36339
C	0.449873	0.945326	0.436318
O	1.12871	-0.116296	-0.0727533
H	0.544207	-1.95386	-0.925556
H	-2.02071	-1.04831	-0.459334
H	-1.69065	1.43071	0.698559
H	1.04271	1.79035	0.823268
C	5.83499	-1.15118	0.0682498
C	4.58976	-0.56379	-0.00600204
N	4.68944	0.786062	-0.0728839
C	5.99156	1.03514	-0.0402478
N	6.72451	-0.100281	0.044627
H	6.14089	-2.20742	0.134035
H	3.62119	-1.0898	-0.0125137
H	6.46263	2.03066	-0.0756451
H	7.77101	-0.167288	0.0847854
