18
  This energy is -2.0874 and Call times are: 24949
C	-0.693712	-0.847906	-0.293633
C	-0.377527	0.166582	-1.14874
C	0.506104	1.02555	-0.426604
C	0.651889	0.46014	0.806047
O	-0.0738442	-0.684666	0.904753
H	-1.33946	-1.73292	-0.416209
H	-0.731075	0.296958	-2.18417
H	0.973885	1.95433	-0.790804
H	1.23563	0.7703	1.68826
C	4.64444	0.585548	1.01938
C	5.63167	-0.2908	0.621214
N	5.37709	-0.784817	-0.614766
C	4.23626	-0.217102	-0.981969
N	3.75442	0.617654	-0.0308641
H	4.51653	1.16914	1.94491
H	6.52308	-0.575469	1.20362
H	3.70975	-0.377399	-1.9366
H	2.87113	1.18183	-0.0834736
