18
  This energy is -0.7274 and Call times are: 66321
C	0.3784	-0.559052	0.911414
C	-0.946982	-0.485485	0.597844
C	-1.02314	0.290419	-0.598939
C	0.262424	0.622501	-0.911058
O	1.13148	0.11203	0.000628561
H	0.906381	-1.05182	1.74428
H	-1.78677	-0.932737	1.15356
H	-1.93372	0.564365	-1.15563
H	0.684438	1.20933	-1.7434
C	6.45947	0.105395	0.172091
C	5.58318	1.10466	-0.194977
N	4.31853	0.629947	-0.303652
C	4.40991	-0.658914	-0.00513724
N	5.68028	-1.02394	0.288967
H	7.54615	0.117611	0.352394
H	5.84081	2.15965	-0.383346
H	3.57779	-1.38103	0.0133711
H	6.00904	-1.98428	0.555287
