18
  This energy is -1.3547 and Call times are: 121169
C	0.507665	0.727163	-0.707044
C	0.32307	1.00309	0.615893
C	-0.340051	-0.136946	1.16426
C	-0.502142	-1.00889	0.128012
O	0.0097526	-0.497443	-1.02238
H	0.973094	1.31146	-1.51774
H	0.62371	1.91768	1.15183
H	-0.655779	-0.282009	2.2099
H	-0.959382	-2.01085	0.0803146
C	4.71414	-0.289043	1.06303
C	3.68625	-0.904046	0.380123
N	3.47292	-0.310875	-0.819522
C	4.36507	0.668392	-0.880608
N	5.1372	0.722885	0.230441
H	5.15963	-0.493072	2.04966
H	3.09475	-1.76514	0.731526
H	4.49621	1.37523	-1.71572
H	5.91075	1.40587	0.421264
