18
  This energy is -0.7917 and Call times are: 131311
C	0.536108	0.72649	-0.686442
C	-0.185504	1.14008	0.394572
C	-0.700383	-0.0474476	0.998549
C	-0.247955	-1.08189	0.2333
O	0.508782	-0.627522	-0.800097
H	1.1079	1.28922	-1.44251
H	-0.339751	2.17736	0.732738
H	-1.33321	-0.11397	1.89811
H	-0.392569	-2.17149	0.317604
C	4.44771	0.572418	-0.388046
C	5.68003	0.504455	-1.00279
N	6.54778	-0.241481	-0.276771
C	5.85642	-0.634781	0.784339
N	4.58475	-0.17001	0.763566
H	3.51408	1.07965	-0.678881
H	5.95856	0.98029	-1.95718
H	6.2327	-1.26409	1.60691
H	3.84426	-0.342381	1.48691
