18
  This energy is -1.2908 and Call times are: 146714
C	-0.144728	-0.844097	0.743609
C	1.04151	-0.627592	0.106164
C	0.831514	0.506812	-0.735945
C	-0.464512	0.883383	-0.53876
O	-1.07572	0.0693671	0.361696
H	-0.450221	-1.60418	1.48131
H	1.97115	-1.20846	0.217765
H	1.56597	0.980367	-1.40708
H	-1.0622	1.70171	-0.972775
C	5.42144	-0.66916	0.871611
C	4.50451	0.354487	0.983517
N	4.24437	0.911656	-0.224127
C	4.99707	0.23623	-1.08196
N	5.72533	-0.727594	-0.470188
H	5.86444	-1.33787	1.62668
H	4.02598	0.700994	1.914
H	5.05318	0.406137	-2.16926
H	6.39405	-1.39267	-0.93034
