18
  This energy is -1.0149 and Call times are: 156400
C	-0.553511	-0.837642	-0.52762
C	-0.507568	0.432614	-1.0223
C	0.270113	1.18683	-0.091451
C	0.630748	0.310884	0.889892
O	0.136376	-0.930078	0.639652
H	-1.03729	-1.7528	-0.906689
H	-0.974478	0.801496	-1.94968
H	0.526052	2.25675	-0.1536
H	1.22903	0.445143	1.80602
C	5.71721	0.153391	-0.721307
C	4.51316	-0.443753	-1.02922
N	3.68308	-0.450602	0.0419671
C	4.36957	0.140047	1.01072
N	5.60203	0.522423	0.600335
H	6.61784	0.335761	-1.32889
H	4.22851	-0.869768	-2.00509
H	4.01741	0.318304	2.03953
H	6.33096	1.00757	1.17874
