18
  This energy is -1.5344 and Call times are: 128709
C	0.794277	-0.291223	0.755456
C	0.649247	0.987786	0.304375
C	-0.438864	0.955239	-0.620327
C	-0.862708	-0.340786	-0.652686
O	-0.120828	-1.11592	0.181457
H	1.50055	-0.737045	1.47495
H	1.2484	1.86606	0.593772
H	-0.8511	1.80326	-1.19043
H	-1.67043	-0.831894	-1.21983
C	4.80181	1.06712	-0.291365
C	4.93533	0.437108	0.927817
N	4.35128	-0.785664	0.912513
C	3.85733	-0.913739	-0.311507
N	4.10287	0.176855	-1.07564
H	5.14333	2.05309	-0.644589
H	5.44261	0.842949	1.81821
H	3.30699	-1.78533	-0.700982
H	3.81555	0.317453	-2.07511
