18
  This energy is -1.2882 and Call times are: 12375
C	-0.592985	0.963086	0.0850595
C	-0.936446	-0.0319828	-0.782262
C	0.0349232	-1.06298	-0.59895
C	0.886224	-0.606926	0.364208
O	0.517762	0.628859	0.793258
H	-1.05141	1.94435	0.29054
H	-1.78837	-0.0392418	-1.48103
H	0.0858831	-2.02854	-1.12733
H	1.77936	-1.0602	0.82475
C	4.05527	0.814404	0.0909501
C	4.20787	-0.110179	-0.920487
N	5.29122	-0.895402	-0.705353
C	5.80874	-0.459607	0.43521
N	5.09957	0.570348	0.954697
H	3.30255	1.60248	0.251824
H	3.55568	-0.224744	-1.80161
H	6.70608	-0.858885	0.934798
H	5.30594	1.08494	1.84569
