18
  This energy is -0.5211 and Call times are: 211510
C	0.824038	0.0875023	-0.774407
C	0.123339	1.16922	-0.328008
C	-0.811856	0.662951	0.62552
C	-0.600083	-0.683455	0.677635
O	0.395429	-1.05225	-0.170867
H	1.64066	-0.00202112	-1.50951
H	0.252109	2.21842	-0.638995
H	-1.55234	1.24156	1.20083
H	-1.0847	-1.47741	1.26927
C	6.87316	-0.112386	0.880159
C	7.13339	-0.224534	-0.469231
N	6.00847	-0.0362361	-1.2011
C	5.05402	0.191859	-0.309128
N	5.52501	0.156496	0.95993
H	7.53003	-0.201905	1.75996
H	8.11267	-0.43794	-0.927835
H	3.99308	0.390608	-0.530831
H	4.9691	0.305514	1.83744
