18
  This energy is -0.8447 and Call times are: 66958
C	0.941948	0.361127	-0.518385
C	0.970017	-0.273664	0.688523
C	-0.390819	-0.568144	1.00716
C	-1.13034	-0.0873111	-0.0331695
O	-0.332645	0.483467	-0.973861
H	1.74904	0.768958	-1.14889
H	1.85976	-0.510758	1.29371
H	-0.765966	-1.07896	1.9085
H	-2.21672	-0.0892208	-0.220326
C	6.97668	-0.0214782	-0.00783725
C	6.1682	1.08486	-0.161232
N	4.85783	0.744799	-0.0995603
C	4.85341	-0.567509	0.091367
N	6.10664	-1.07653	0.153733
H	8.073	-0.129068	-0.00240068
H	6.50692	2.12235	-0.315298
H	3.96051	-1.20528	0.192454
H	6.36611	-2.08311	0.297732
