18
  This energy is -1.0685 and Call times are: 70190
C	-0.00480339	0.835791	-0.766702
C	-1.09805	0.0552441	-0.530207
C	-0.706328	-0.868699	0.486159
C	0.591715	-0.571198	0.781029
O	1.03629	0.467183	0.0252978
H	0.157712	1.6747	-1.46317
H	-2.08166	0.123285	-1.02213
H	-1.32583	-1.65946	0.938943
H	1.29927	-1.01786	1.49874
C	5.27348	-1.01023	-0.188829
C	5.16883	-0.328814	1.00527
N	4.4337	0.800428	0.860652
C	4.08363	0.819493	-0.418298
N	4.56555	-0.250808	-1.09343
H	5.78458	-1.95045	-0.450158
H	5.61058	-0.631758	1.96856
H	3.47507	1.59369	-0.912764
H	4.42641	-0.461914	-2.11193
