18
  This energy is -0.7849 and Call times are: 116794
C	-0.771487	0.196422	-0.807854
C	-0.774804	-0.941511	-0.0558763
C	0.332841	-0.82266	0.838055
C	0.915245	0.377411	0.553433
O	0.253828	1.0132	-0.44922
H	-1.43552	0.53908	-1.61835
H	-1.48591	-1.78044	-0.123864
H	0.651283	-1.55112	1.60097
H	1.79239	0.885439	0.986758
C	6.40141	0.69462	0.300086
C	5.12356	0.727581	0.816943
N	4.3393	-0.21609	0.24167
C	5.12763	-0.832136	-0.628761
N	6.38096	-0.319553	-0.631161
H	7.2941	1.30087	0.52167
H	4.75343	1.41537	1.59464
H	4.83819	-1.66496	-1.28972
H	7.1841	-0.634667	-1.22859
