18
  This energy is -0.7883 and Call times are: 24498
C	0.969662	0.322766	0.491913
C	0.165541	-0.641181	1.02536
C	-0.942104	-0.764778	0.132075
C	-0.717069	0.134552	-0.868394
O	0.445995	0.80747	-0.66474
H	1.92748	0.74773	0.834316
H	0.335345	-1.2083	1.95468
H	-1.80185	-1.44678	0.231089
H	-1.30043	0.387544	-1.76891
C	5.56778	-1.09718	0.21453
C	4.98438	-0.229395	1.11327
N	4.68508	0.954457	0.525538
C	5.0813	0.821606	-0.733026
N	5.6203	-0.397702	-0.970442
H	5.93698	-2.12858	0.330478
H	4.77405	-0.436298	2.17525
H	5.00038	1.58591	-1.52266
H	6.00491	-0.7442	-1.88328
