18
  This energy is -0.4532 and Call times are: 20374
C	0.92589	-0.393323	0.523857
C	0.379749	-1.01601	-0.559825
C	-0.755928	-0.232708	-0.929682
C	-0.803529	0.799494	-0.0393637
O	0.216047	0.717163	0.855453
H	1.80668	-0.6372	1.14029
H	0.740442	-1.93476	-1.04961
H	-1.45084	-0.423386	-1.76325
H	-1.50292	1.6455	0.0624486
C	5.25274	-0.234944	0.117012
C	6.12598	-0.803601	-0.785888
N	7.37525	-0.298523	-0.641938
C	7.2774	0.580129	0.346505
N	6.01766	0.655046	0.837437
H	4.17701	-0.39527	0.292024
H	5.87698	-1.56927	-1.53861
H	8.09706	1.19587	0.750551
H	5.68669	1.2733	1.61813
