18
  This energy is -0.5351 and Call times are: 136860
C	-0.508463	-0.209935	0.991864
C	0.733296	0.348579	0.911405
C	1.02543	0.453068	-0.482818
C	-0.0635991	-0.0508178	-1.13127
O	-1.01007	-0.460401	-0.246146
H	-1.13573	-0.475905	1.85849
H	1.3788	0.65613	1.74975
H	1.94247	0.85774	-0.940388
H	-0.284392	-0.171403	-2.20456
C	5.2996	0.393118	-0.140248
C	6.24886	0.221455	-1.12543
N	7.40987	-0.249154	-0.608617
C	7.18173	-0.368987	0.692237
N	5.9237	0.0058674	1.02454
H	4.25884	0.751494	-0.184145
H	6.11681	0.428738	-2.19988
H	7.90099	-0.726282	1.44672
H	5.50375	0.00220211	1.98625
