18
  This energy is -1.7496 and Call times are: 13711
C	-0.0741994	-0.00803553	1.13174
C	-0.609408	-0.995294	0.357629
C	-0.314592	-0.636245	-0.993032
C	0.37475	0.538728	-0.92506
O	0.530672	0.937025	0.364924
H	-0.0565264	0.135539	2.22459
H	-1.15689	-1.88694	0.703081
H	-0.588044	-1.19415	-1.90301
H	0.802631	1.18188	-1.71152
C	3.84946	-0.00259421	0.980758
C	5.00273	-0.722486	0.750836
N	5.49168	-0.478961	-0.489383
C	4.64495	0.388707	-1.02681
N	3.63753	0.707346	-0.179957
H	3.18668	0.0528892	1.85893
H	5.49077	-1.41323	1.45761
H	4.71539	0.823098	-2.03705
H	2.84585	1.36912	-0.371141
