18
  This energy is -0.5195 and Call times are: 176424
C	0.822233	-0.766921	-0.148883
C	-0.054807	-0.82942	0.893838
C	-0.925339	0.292509	0.740321
C	-0.50342	0.941562	-0.382661
O	0.562917	0.308358	-0.93853
H	1.66418	-1.418	-0.436078
H	-0.0856368	-1.58934	1.69112
H	-1.76532	0.575412	1.39491
H	-0.872736	1.85154	-0.88346
C	6.23758	-1.0222	-0.566815
C	5.0569	-0.338129	-0.368894
N	5.26585	0.806298	0.326185
C	6.5712	0.832105	0.558589
N	7.20146	-0.248462	0.0401932
H	6.45292	-1.97312	-1.07956
H	4.05801	-0.649844	-0.71518
H	7.11762	1.61872	1.10347
H	8.22867	-0.457094	0.0909915
