18
  This energy is -1.0849 and Call times are: 167130
C	0.970014	-0.106289	-0.57808
C	0.291803	-1.18215	-0.0852033
C	-0.860667	-0.650995	0.57039
C	-0.784979	0.702558	0.420263
O	0.32671	1.05281	-0.278653
H	1.90894	-0.0338419	-1.15116
H	0.574706	-2.24334	-0.174355
H	-1.64898	-1.21848	1.09061
H	-1.4496	1.51406	0.759381
C	5.11027	-1.09308	0.148164
C	4.49712	-0.303541	1.09781
N	4.15069	0.900893	0.582216
C	4.54742	0.858714	-0.68248
N	5.13191	-0.322629	-0.992945
H	5.5191	-2.1146	0.201852
H	4.2985	-0.581382	2.14576
H	4.43458	1.6651	-1.42493
H	5.5264	-0.598993	-1.92528
