18
  This energy is -2.223 and Call times are: 157898
C	-0.458144	-0.0581282	-1.03592
C	-0.249775	-1.16474	-0.266257
C	0.333954	-0.69183	0.948543
C	0.430763	0.662015	0.81399
O	-0.0483461	1.06626	-0.39185
H	-0.884541	0.0604906	-2.04555
H	-0.483666	-2.20925	-0.527742
H	0.642636	-1.29679	1.81621
H	0.816568	1.43863	1.49463
C	4.55251	-0.66482	-0.969716
C	5.61729	-0.182042	-0.238747
N	5.19174	0.549647	0.819576
C	3.868	0.520899	0.745443
N	3.43365	-0.198751	-0.316178
H	4.51312	-1.28633	-1.87841
H	6.68496	-0.348568	-0.456035
H	3.16852	1.00981	1.44253
H	2.43487	-0.3692	-0.589379
