18
  This energy is -0.7254 and Call times are: 80188
C	0.448274	0.616515	0.839857
C	-0.645134	-0.178552	1.02069
C	-0.903166	-0.782895	-0.2475
C	0.0553422	-0.303784	-1.09135
O	0.889219	0.552177	-0.444059
H	1.00108	1.26876	1.53572
H	-1.21301	-0.324785	1.95355
H	-1.71088	-1.49086	-0.493415
H	0.249126	-0.49242	-2.16005
C	5.6794	-0.917608	-0.28549
C	4.40116	-0.962918	0.229493
N	3.91514	0.284282	0.44111
C	4.88815	1.10022	0.058862
N	5.97313	0.42387	-0.387195
H	6.37751	-1.71834	-0.577065
H	3.82092	-1.87319	0.452147
H	4.85881	2.20145	0.084461
H	6.86767	0.841764	-0.742765
