18
  This energy is -0.594 and Call times are: 59934
C	0.774038	-0.829004	-0.00430516
C	0.32176	-0.257959	1.14883
C	-0.629169	0.729998	0.749091
C	-0.674046	0.675464	-0.613034
O	0.176551	-0.271101	-1.09001
H	1.50972	-1.63014	-0.183795
H	0.627142	-0.507416	2.17772
H	-1.20767	1.39884	1.40642
H	-1.26149	1.24898	-1.34872
C	4.87625	-0.297095	-0.18445
C	5.92846	-1.15296	0.0635233
N	7.08649	-0.468667	0.228503
C	6.75396	0.806872	0.0834312
N	5.43235	0.962524	-0.167015
H	3.80677	-0.488858	-0.366032
H	5.87279	-2.25197	0.126348
H	7.43885	1.66746	0.150751
H	4.92749	1.86987	-0.31896
