18
  This energy is -1.0491 and Call times are: 19380
C	1.03379	0.341302	0.318102
C	-0.104528	0.945164	0.765262
C	-1.18651	0.243099	0.151631
C	-0.613855	-0.727809	-0.61634
O	0.741467	-0.682443	-0.52659
H	2.09779	0.543239	0.523942
H	-0.175194	1.79931	1.45775
H	-2.26287	0.444676	0.273757
H	-1.05532	-1.50273	-1.26431
C	5.13119	0.590819	0.99125
C	5.21517	-0.772321	0.801666
N	4.87674	-1.1111	-0.466091
C	4.58392	0.0375047	-1.06073
N	4.72201	1.09306	-0.22387
H	5.32712	1.21809	1.87538
H	5.5139	-1.51744	1.55692
H	4.26299	0.16272	-2.10741
H	4.55013	2.10185	-0.45638
