18
  This energy is -1.2242 and Call times are: 102407
C	-0.092698	0.544002	0.990893
C	0.615882	-0.613703	0.856706
C	0.499404	-0.986396	-0.517212
C	-0.270072	-0.0235368	-1.10132
O	-0.640531	0.918968	-0.194978
H	-0.28056	1.18907	1.86488
H	1.16545	-1.1513	1.64604
H	0.94071	-1.87041	-1.00492
H	-0.620003	0.102966	-2.13901
C	4.41394	-0.939539	0.177982
C	4.00147	0.340914	-0.124428
N	5.06019	1.1755	-0.262572
C	6.12542	0.415686	-0.046684
N	5.78835	-0.867744	0.223097
H	3.84564	-1.86586	0.358262
H	2.95891	0.677505	-0.245411
H	7.17562	0.748202	-0.0738148
H	6.44826	-1.65763	0.427657
