18
  This energy is -0.7427 and Call times are: 116378
C	0.800208	0.516078	0.616223
C	0.671029	0.714939	-0.72696
C	-0.431169	-0.0952289	-1.13794
C	-0.878227	-0.717652	-0.00962479
O	-0.137757	-0.355912	1.07105
H	1.50918	0.9303	1.35177
H	1.28982	1.36675	-1.3644
H	-0.836858	-0.19646	-2.15739
H	-1.70286	-1.4307	0.154084
C	6.65149	-0.160042	-0.50384
C	6.18616	-0.75829	0.647991
N	4.92947	-0.343918	0.94044
C	4.61636	0.508155	-0.026288
N	5.62175	0.653106	-0.921712
H	7.61054	-0.252335	-1.03791
H	6.73469	-1.48149	1.27325
H	3.66439	1.05395	-0.1267
H	5.61761	1.26781	-1.77223
