18
  This energy is -0.5146 and Call times are: 88399
C	-0.755903	0.262845	0.803694
C	-0.750038	0.866969	-0.419161
C	0.332025	0.277335	-1.14137
C	0.891871	-0.635054	-0.296097
O	0.240073	-0.657197	0.896246
H	-1.40791	0.397162	1.68238
H	-1.43861	1.64933	-0.776747
H	0.649217	0.511637	-2.17025
H	1.74545	-1.32116	-0.422294
C	7.08877	0.564721	0.525622
C	7.18669	-0.457409	-0.394599
N	5.96067	-0.874851	-0.793523
C	5.10542	-0.114582	-0.123332
N	5.73644	0.76929	0.685476
H	7.85999	1.14176	1.06021
H	8.12001	-0.901139	-0.777832
H	4.00642	-0.163149	-0.187196
H	5.28209	1.4758	1.31449
