18
  This energy is -1.2453 and Call times are: 124160
C	-0.592447	0.412351	-0.874857
C	-0.809938	-0.835415	-0.368743
C	0.116317	-0.987589	0.707832
C	0.818061	0.180619	0.764561
O	0.39836	1.04699	-0.194745
H	-1.06961	0.957747	-1.70559
H	-1.54854	-1.57452	-0.718445
H	0.238666	-1.86814	1.3588
H	1.62969	0.514279	1.43178
C	5.26292	0.287448	-1.13952
C	6.29579	-0.151774	-0.338645
N	5.86691	-0.391282	0.924368
C	4.57288	-0.101745	0.907097
N	4.16065	0.312058	-0.31455
H	5.23521	0.574661	-2.20267
H	7.34279	-0.300143	-0.649524
H	3.88034	-0.175031	1.76106
H	3.18688	0.597291	-0.582275
