18
  This energy is -1.101 and Call times are: 209274
C	0.348257	-0.95774	0.497847
C	-0.914284	-0.467681	0.659733
C	-0.969332	0.733418	-0.111272
C	0.264428	0.871304	-0.676246
O	1.0818	-0.152618	-0.314993
H	0.840696	-1.85742	0.902002
H	-1.72545	-0.90784	1.2617
H	-1.83167	1.40967	-0.225951
H	0.680272	1.64284	-1.34487
C	5.03196	0.736076	0.915782
C	6.09425	-0.078866	0.586292
N	5.83139	-0.795475	-0.533482
C	4.61069	-0.426501	-0.897285
N	4.08594	0.495168	-0.055406
H	4.88709	1.44669	1.74498
H	7.04563	-0.162606	1.13648
H	4.05382	-0.799789	-1.7718
H	3.13889	0.941255	-0.128562
