18
  This energy is -3.0009 and Call times are: 62545
C	-0.157892	1.07362	0.329868
C	-0.284818	0.020042	1.18675
C	-0.0136882	-1.14889	0.412015
C	0.254987	-0.706438	-0.849898
O	0.171438	0.648319	-0.9182
H	-0.274547	2.15901	0.483387
H	-0.543429	0.0618347	2.25701
H	-0.0202871	-2.19361	0.762174
H	0.515582	-1.2475	-1.77434
C	3.83274	0.00204089	-1.08016
C	5.16265	-0.159827	-0.754167
N	5.34661	-0.108594	0.587491
C	4.13542	0.0843239	1.0919
N	3.18845	0.157962	0.126802
H	3.31644	0.0168171	-2.05318
H	5.99274	-0.312663	-1.46301
H	3.88548	0.178925	2.16093
H	2.15949	0.305686	0.270577
