18
  This energy is -1.7648 and Call times are: 127204
C	-0.216662	0.888332	0.671062
C	0.893348	0.823216	-0.118882
C	0.813354	-0.427921	-0.80326
C	-0.338478	-1.01691	-0.371116
O	-0.980193	-0.227025	0.529604
H	-0.572497	1.66344	1.36951
H	1.68869	1.58028	-0.210459
H	1.53434	-0.833782	-1.53096
H	-0.805617	-1.98263	-0.624909
C	4.0478	-0.894173	0.679337
C	4.36157	-0.947868	-0.662232
N	4.72986	0.270661	-1.12706
C	4.64488	1.07723	-0.0778438
N	4.23779	0.422407	1.03529
H	3.71388	-1.67369	1.38247
H	4.32881	-1.84401	-1.30309
H	4.86914	2.15606	-0.0691663
H	4.09425	0.838385	1.98798
