18
  This energy is -1.5131 and Call times are: 106261
C	-0.569712	-0.95632	0.21744
C	-0.339697	-0.00994682	1.17235
C	0.396425	1.02849	0.524354
C	0.55126	0.625018	-0.769327
O	-0.0325801	-0.584968	-0.974448
H	-1.09551	-1.92433	0.259174
H	-0.656607	-0.0400931	2.22722
H	0.763736	1.96356	0.976922
H	1.0497	1.10189	-1.62921
C	4.81299	0.446395	-0.960557
C	3.97808	1.10797	-0.0851187
N	3.56768	0.287992	0.912734
C	4.14578	-0.877846	0.657307
N	4.907	-0.833641	-0.461701
H	5.32965	0.784621	-1.87281
H	3.66448	2.16227	-0.155625
H	4.04558	-1.79678	1.25711
H	5.4629	-1.6239	-0.87125
