18
  This energy is -0.8082 and Call times are: 30231
C	-0.933099	0.619457	0.178888
C	0.0267907	0.986918	-0.717749
C	1.02716	-0.0308657	-0.658688
C	0.590278	-0.930432	0.268827
O	-0.605307	-0.54908	0.790515
H	-1.88317	1.09702	0.46966
H	0.0300659	1.88463	-1.35665
H	1.96028	-0.079172	-1.24269
H	1.03213	-1.86901	0.641776
C	6.52795	-0.244184	-0.518452
C	5.44174	0.384317	-1.08967
N	4.42368	0.50262	-0.203068
C	4.87659	-0.0503863	0.91393
N	6.14061	-0.515645	0.774788
H	7.51618	-0.508659	-0.927092
H	5.3744	0.754533	-2.12565
H	4.32419	-0.141156	1.86306
H	6.71597	-0.99234	1.51167
