18
  This energy is -1.3036 and Call times are: 175398
C	0.0118809	-1.03984	-0.452765
C	-1.14496	-0.350094	-0.237472
C	-0.754779	0.89846	0.336105
C	0.606048	0.861471	0.420683
O	1.09106	-0.314937	-0.0566469
H	0.198461	-2.04067	-0.875583
H	-2.17021	-0.686758	-0.460224
H	-1.41736	1.72232	0.646489
H	1.33552	1.59788	0.79594
C	4.61549	-0.347696	1.0792
C	4.40397	-1.15206	-0.0205286
N	4.05088	-0.416995	-1.10289
C	4.04339	0.838613	-0.676262
N	4.37707	0.932919	0.632689
H	4.90902	-0.587948	2.11344
H	4.4998	-2.24963	-0.0523769
H	3.80084	1.72757	-1.28054
H	4.44183	1.81375	1.19943
