18
  This energy is -1.1768 and Call times are: 43561
C	-0.0367847	-0.156522	-1.12274
C	-0.95149	-0.712467	-0.277393
C	-0.576747	-0.292283	1.03529
C	0.533876	0.483338	0.87622
O	0.877696	0.577048	-0.435274
H	0.0709656	-0.206599	-2.2187
H	-1.80453	-1.35408	-0.550779
H	-1.08147	-0.543342	1.98203
H	1.16304	1.01791	1.60672
C	5.07365	0.80905	-0.633606
C	4.30273	1.03028	0.487949
N	3.78954	-0.129816	0.964733
C	4.24037	-1.06717	0.142089
N	5.01914	-0.551574	-0.838352
H	5.63836	1.5005	-1.279
H	4.10763	2.00618	0.961659
H	4.03082	-2.14674	0.211713
H	5.49143	-1.0864	-1.60787
