18
  This energy is -2.2727 and Call times are: 141626
C	0.416296	0.895692	0.557526
C	0.791542	0.590133	-0.717699
C	0.0623946	-0.586921	-1.06842
C	-0.694057	-0.896736	0.023446
O	-0.490433	-0.00184476	1.0258
H	0.71768	1.71379	1.23216
H	1.50975	1.13859	-1.34814
H	0.102869	-1.13253	-2.02486
H	-1.40721	-1.71639	0.210084
C	5.45956	-0.638869	-0.752847
C	6.76273	-0.22144	-0.922079
N	7.18813	0.497195	0.145213
C	6.1528	0.525479	0.973414
N	5.08629	-0.145369	0.477322
H	4.79361	-1.23238	-1.39921
H	7.40364	-0.425927	-1.79517
H	6.1216	1.02317	1.95604
H	4.15289	-0.266485	0.941383
