18
  This energy is -1.0996 and Call times are: 68270
C	0.0345053	0.227272	1.11066
C	0.137384	1.20197	0.162105
C	0.0516823	0.532912	-1.09692
C	-0.0960031	-0.791578	-0.80659
O	-0.108585	-0.996377	0.53688
H	0.0485444	0.274456	2.21194
H	0.261204	2.2836	0.331963
H	0.0958421	0.99265	-2.09731
H	-0.20121	-1.67533	-1.45711
C	4.46995	1.08184	0.325238
C	3.83716	0.262331	-0.585329
N	4.49133	-0.91702	-0.718413
C	5.526	-0.829481	0.106457
N	5.55729	0.356681	0.758861
H	4.2314	2.09592	0.683394
H	2.92032	0.500899	-1.14865
H	6.2915	-1.60476	0.271363
H	6.2734	0.665162	1.46119
