18
  This energy is -0.8852 and Call times are: 109415
C	1.06822	0.180953	-0.335494
C	0.762553	-0.604328	0.737014
C	-0.661909	-0.587427	0.840652
C	-1.10096	0.20669	-0.177674
O	-0.0578019	0.684448	-0.906084
H	2.03496	0.456528	-0.787971
H	1.46928	-1.14159	1.38969
H	-1.27921	-1.10898	1.58966
H	-2.11622	0.505781	-0.485949
C	6.19699	0.109423	1.00833
C	5.0008	-0.55064	0.822334
N	4.59807	-0.477473	-0.469552
C	5.54083	0.22531	-1.08268
N	6.52671	0.602332	-0.234453
H	6.81627	0.2583	1.90714
H	4.42113	-1.07835	1.59716
H	5.55879	0.492733	-2.1515
H	7.37975	1.16326	-0.477261
