18
  This energy is -0.6009 and Call times are: 19862
C	-0.53801	-0.566004	-0.822548
C	-0.654653	0.784155	-0.668146
C	0.158028	1.12066	0.457213
C	0.699548	-0.0535754	0.891158
O	0.285222	-1.09397	0.121143
H	-0.983656	-1.25936	-1.55461
H	-1.25296	1.47393	-1.28485
H	0.315103	2.12321	0.886518
H	1.38467	-0.278722	1.72493
C	6.90566	-0.0421479	0.401032
C	6.50614	0.102762	-0.910655
N	5.15476	0.111036	-1.01176
C	4.71759	-0.0282113	0.232475
N	5.73479	-0.124741	1.12105
H	7.90693	-0.0907209	0.857811
H	7.16876	0.201491	-1.78589
H	3.66278	-0.0657046	0.54901
H	5.64805	-0.240453	2.16045
