18
  This energy is -0.689 and Call times are: 126246
C	-0.457639	-0.958834	0.396994
C	-0.735505	0.261903	0.938257
C	0.0186593	1.20737	0.178353
C	0.690808	0.480924	-0.760195
O	0.411699	-0.843829	-0.641292
H	-0.80948	-1.97083	0.656445
H	-1.40444	0.475191	1.78745
H	0.0507127	2.29945	0.321219
H	1.38831	0.784441	-1.55808
C	6.60352	0.138754	-0.384816
C	6.10574	-0.927335	0.334082
N	4.79	-0.758165	0.611072
C	4.47274	0.408436	0.066084
N	5.53207	0.988549	-0.546182
H	7.61079	0.345919	-0.779818
H	6.6724	-1.81554	0.657859
H	3.47931	0.884813	0.0857621
H	5.53638	1.9101	-1.04817
