18
  This energy is -2.7891 and Call times are: 110056
C	-0.313772	-0.797693	0.74272
C	0.25256	0.3805	1.13195
C	0.503222	1.10983	-0.0702795
C	0.0679385	0.312933	-1.08805
O	-0.434061	-0.855924	-0.609741
H	-0.670378	-1.66441	1.32315
H	0.471805	0.70359	2.16231
H	0.955456	2.11082	-0.157388
H	0.0601049	0.461008	-2.18042
C	3.83436	-0.126865	1.0734
C	5.07269	0.395225	0.765003
N	5.285	0.391483	-0.573436
C	4.18258	-0.130942	-1.0934
N	3.27763	-0.459757	-0.141276
H	3.32683	-0.279962	2.03906
H	5.81674	0.774542	1.48428
H	3.98563	-0.295275	-2.16505
H	2.33206	-0.886901	-0.298432
