18
  This energy is -1.3717 and Call times are: 190505
C	-0.146992	0.962474	-0.581755
C	0.893771	0.114645	-0.823357
C	0.73823	-0.967305	0.0960501
C	-0.383851	-0.685128	0.818326
O	-0.937291	0.489699	0.417707
H	-0.432258	1.92076	-1.04603
H	1.69104	0.238703	-1.57374
H	1.39092	-1.84891	0.200252
H	-0.885538	-1.23226	1.63331
C	4.41502	0.871776	0.0944069
C	5.55565	0.699918	0.849768
N	6.22933	-0.413329	0.471137
C	5.50936	-0.930134	-0.515364
N	4.40552	-0.19186	-0.780108
H	3.63541	1.64975	0.11656
H	5.90459	1.35925	1.66117
H	5.74474	-1.84759	-1.07848
H	3.68058	-0.391643	-1.51209
