18
  This energy is -0.6486 and Call times are: 117594
C	0.646154	0.676462	-0.641315
C	-0.563493	0.20782	-1.06263
C	-1.06441	-0.597405	0.00546198
C	-0.116645	-0.549742	0.985179
O	0.934936	0.223746	0.60715
H	1.38713	1.33059	-1.1295
H	-1.05385	0.408982	-2.02864
H	-2.02036	-1.1447	0.0322306
H	-0.072644	-1.01601	1.98313
C	5.44603	-0.979694	-0.600661
C	4.68035	0.164236	-0.521355
N	5.27666	1.09826	0.258721
C	6.40799	0.535908	0.66182
N	6.55622	-0.717201	0.170559
H	5.28484	-1.93026	-1.13356
H	3.70832	0.332359	-1.01303
H	7.16406	0.99723	1.31739
H	7.36311	-1.36532	0.344102
