18
  This energy is -0.888 and Call times are: 30135
C	0.843226	0.675107	-0.345834
C	1.06631	-0.572733	0.157657
C	-0.221587	-1.10173	0.476423
C	-1.11799	-0.130453	0.139586
O	-0.485139	0.961677	-0.364165
H	1.53555	1.44684	-0.720477
H	2.0401	-1.07073	0.291188
H	-0.444883	-2.09142	0.906245
H	-2.21764	-0.0947621	0.208474
C	6.0094	-0.5105	-1.06037
C	7.02034	0.235207	-0.491996
N	6.67063	0.672016	0.74227
C	5.44739	0.199092	0.938849
N	5.00429	-0.520516	-0.119177
H	5.93652	-1.01783	-2.03549
H	7.9958	0.465872	-0.950392
H	4.83064	0.349823	1.83948
H	4.0726	-0.995566	-0.205974
