18
  This energy is -1.4803 and Call times are: 27964
C	0.389409	0.862377	-0.625354
C	-0.641018	0.0689099	-1.03645
C	-0.836794	-0.888616	0.00514864
C	0.0912798	-0.595751	0.960807
O	0.848736	0.470773	0.592299
H	0.881912	1.72616	-1.10135
H	-1.20652	0.149781	-1.97867
H	-1.58426	-1.69776	0.0310953
H	0.31138	-1.06427	1.9341
C	5.44914	0.923483	0.639664
C	6.14728	-0.177255	1.08925
N	6.3856	-1.0502	0.0804471
C	5.83739	-0.493137	-0.990893
N	5.26014	0.698068	-0.70557
H	5.08557	1.82131	1.16432
H	6.48329	-0.357188	2.12345
H	5.82976	-0.914543	-2.00902
H	4.76328	1.3296	-1.38052
