18
  This energy is -0.6502 and Call times are: 120637
C	0.50763	-0.625611	-0.798325
C	-0.604378	-1.05204	-0.133518
C	-0.940991	-0.00467313	0.777433
C	-0.00496698	0.969329	0.588878
O	0.887536	0.606891	-0.369813
H	1.1144	-1.09949	-1.58732
H	-1.13443	-2.00822	-0.270834
H	-1.78392	0.0126657	1.48684
H	0.133441	1.95276	1.06738
C	5.83755	-0.883078	-0.700946
C	4.5544	-0.409866	-0.525665
N	4.52901	0.618073	0.357063
C	5.79162	0.781942	0.727993
N	6.61931	-0.0991202	0.117867
H	6.2364	-1.69514	-1.32945
H	3.64647	-0.791743	-1.02032
H	6.16537	1.53206	1.44344
H	7.65855	-0.171284	0.244451
