18
  This energy is -1.283 and Call times are: 86698
C	0.417942	0.862328	-0.606726
C	-0.204576	-0.204165	-1.1859
C	-0.584862	-1.06551	-0.111849
C	-0.161161	-0.449339	1.02884
O	0.453389	0.7292	0.745321
H	0.872841	1.76769	-1.04106
H	-0.378528	-0.367881	-2.26155
H	-1.11229	-2.02984	-0.189183
H	-0.235391	-0.742459	2.08895
C	3.7794	0.337276	-0.867218
C	4.83379	1.0537	-0.341728
N	5.44978	0.361949	0.647484
C	4.78008	-0.779283	0.735339
N	3.76352	-0.842334	-0.156967
H	3.06313	0.575449	-1.66957
H	5.16108	2.05734	-0.658639
H	4.99178	-1.60335	1.43557
H	3.09132	-1.63818	-0.283615
