18
  This energy is -1.1545 and Call times are: 139027
C	-0.455925	1.0169	-0.210804
C	0.736599	0.626121	-0.745173
C	0.970713	-0.694778	-0.254731
C	-0.099414	-0.994573	0.536044
O	-0.980543	0.0394308	0.574264
H	-1.03043	1.95241	-0.310927
H	1.38623	1.20951	-1.41729
H	1.83795	-1.33916	-0.470984
H	-0.348175	-1.89697	1.11832
C	5.59504	0.870249	-0.523146
C	4.56352	1.00086	0.382412
N	4.10849	-0.211191	0.782901
C	4.8549	-1.09038	0.128285
N	5.76597	-0.487978	-0.672114
H	6.19941	1.62262	-1.05438
H	4.13945	1.94795	0.753965
H	4.77647	-2.1873	0.198037
H	6.46868	-0.964741	-1.28869
