18
  This energy is -0.9572 and Call times are: 52067
C	1.03103	-0.437589	0.178614
C	-0.11181	-1.15312	0.384307
C	-1.18823	-0.273653	0.0557305
C	-0.60816	0.901677	-0.321745
O	0.74664	0.819426	-0.252722
H	2.09333	-0.705441	0.301112
H	-0.18906	-2.19567	0.732489
H	-2.26601	-0.498734	0.0985033
H	-1.04359	1.85752	-0.656429
C	4.91644	-1.14562	-0.256236
C	4.71557	-0.0881517	-1.11795
N	4.89475	1.0975	-0.486565
C	5.20559	0.776787	0.762092
N	5.23162	-0.563768	0.951361
H	4.8593	-2.23471	-0.411713
H	4.44456	-0.159462	-2.18393
H	5.42377	1.48414	1.57836
H	5.45025	-1.06449	1.84732
