18
  This energy is -0.8 and Call times are: 183480
C	0.250893	0.0402916	1.10536
C	1.00608	-0.658485	0.209948
C	0.380415	-0.470296	-1.06019
C	-0.701881	0.326868	-0.828806
O	-0.796294	0.648282	0.488308
H	0.351886	0.181518	2.19399
H	1.91278	-1.24738	0.42254
H	0.705558	-0.884272	-2.02817
H	-1.47145	0.729941	-1.50745
C	4.79322	-0.672151	-0.531419
C	5.37735	0.471858	-1.0326
N	6.26586	0.992909	-0.151937
C	6.23306	0.175256	0.891611
N	5.36051	-0.844443	0.711432
H	4.03913	-1.35314	-0.957044
H	5.1736	0.930619	-2.01386
H	6.82742	0.276543	1.81395
H	5.15526	-1.61876	1.38934
