18
  This energy is -1.6088 and Call times are: 93616
C	-0.502922	-0.898723	0.47515
C	0.818329	-0.616974	0.663
C	1.07453	0.572809	-0.0845917
C	-0.112771	0.913089	-0.663289
O	-1.08711	0.0253649	-0.332191
H	-1.13753	-1.71581	0.855795
H	1.54012	-1.18954	1.26738
H	2.03446	1.10614	-0.175088
H	-0.3909	1.75147	-1.32284
C	4.40286	-1.13802	-0.0412981
C	4.76133	-0.337258	-1.10498
N	5.04079	0.923779	-0.694852
C	4.85637	0.905399	0.618266
N	4.47117	-0.31506	1.06063
H	4.11362	-2.19984	0.0078406
H	4.82334	-0.646828	-2.16099
H	4.98939	1.75767	1.30396
H	4.26402	-0.583296	2.05381
