18
  This energy is -1.3201 and Call times are: 59037
C	0.991156	0.516481	-0.193022
C	0.912132	-0.777937	0.229604
C	-0.481581	-1.06303	0.35767
C	-1.1312	0.0823331	0.00199856
O	-0.247274	1.05731	-0.337283
H	1.85696	1.15868	-0.423709
H	1.75112	-1.46325	0.430969
H	-0.938042	-2.01334	0.678072
H	-2.20461	0.327851	-0.0504979
C	4.63086	-0.671572	0.781128
C	5.54204	0.326095	1.05601
N	6.00241	0.895166	-0.084484
C	5.37921	0.252976	-1.06317
N	4.54139	-0.701109	-0.592667
H	4.05885	-1.34031	1.4438
H	5.8755	0.645484	2.05683
H	5.49943	0.441274	-2.14221
H	3.93852	-1.34135	-1.16529
