18
  This energy is -0.8143 and Call times are: 67260
C	-0.831216	0.32478	0.699999
C	0.0326155	1.21322	0.130054
C	0.920681	0.434679	-0.673268
C	0.521137	-0.860794	-0.523307
O	-0.547497	-0.946422	0.311978
H	-1.67888	0.469104	1.38984
H	0.0433704	2.30709	0.262086
H	1.75689	0.804895	-1.28792
H	0.909124	-1.79974	-0.951209
C	5.46257	0.428762	-1.08737
C	4.63097	-0.45748	-0.43609
N	5.09279	-0.737678	0.806779
C	6.20665	-0.0279622	0.926088
N	6.47269	0.69219	-0.189347
H	5.40882	0.875713	-2.0928
H	3.70602	-0.899737	-0.840728
H	6.86581	0.00119139	1.80864
H	7.29229	1.32974	-0.341159
