18
  This energy is -1.3708 and Call times are: 85087
C	-0.146946	1.1233	-0.0547852
C	-1.13883	0.275402	0.342217
C	-0.578924	-1.03718	0.281042
C	0.705681	-0.875516	-0.147943
O	0.986539	0.437506	-0.35795
H	-0.122321	2.22014	-0.162494
H	-2.16211	0.547018	0.647516
H	-1.08178	-1.98561	0.529478
H	1.50936	-1.60502	-0.340771
C	4.88234	-1.16268	-0.00305878
C	5.57184	-0.21503	-0.729472
N	5.09711	1.03014	-0.483149
C	4.11681	0.855625	0.392746
N	3.94814	-0.448974	0.713937
H	4.98685	-2.25791	0.0525406
H	6.40336	-0.407458	-1.4269
H	3.49023	1.64875	0.831589
H	3.24054	-0.841911	1.38189
