18
  This energy is -0.5638 and Call times are: 198509
C	-0.847803	0.0111612	0.753331
C	0.313605	-0.670181	0.970772
C	1.12071	-0.44635	-0.186207
C	0.381262	0.352013	-1.00853
O	-0.823754	0.641246	-0.450591
H	-1.75512	0.124638	1.36908
H	0.575666	-1.2702	1.857
H	2.13297	-0.838318	-0.375384
H	0.596951	0.776929	-2.0026
C	6.96105	0.320746	0.838466
C	7.12638	-0.687504	-0.0874077
N	6.04938	-0.781984	-0.904509
C	5.21906	0.164055	-0.48713
N	5.72311	0.856553	0.561665
H	7.6149	0.682801	1.64774
H	8.00349	-1.34847	-0.180474
H	4.22917	0.39275	-0.913799
H	5.25927	1.65038	1.06757
