18
  This energy is -1.2483 and Call times are: 105499
C	-0.0626262	1.0183	-0.495531
C	1.08698	0.284524	-0.476865
C	0.772129	-0.917636	0.227262
C	-0.542089	-0.812363	0.57672
O	-1.06773	0.363609	0.143352
H	-0.291815	2.00728	-0.925214
H	2.05918	0.561978	-0.914986
H	1.45167	-1.75758	0.443623
H	-1.20937	-1.49606	1.12676
C	4.81211	0.417554	-1.09682
C	4.96537	-0.900766	-0.723069
N	5.03227	-1.02184	0.625031
C	4.92095	0.216656	1.08585
N	4.78599	1.12073	0.0868382
H	4.72278	0.889347	-2.08827
H	5.02886	-1.76673	-1.40199
H	4.932	0.517827	2.14576
H	4.68137	2.15944	0.193614
