18
  This energy is -0.9206 and Call times are: 189897
C	-0.743031	0.815407	0.263471
C	-0.266985	-0.0659152	1.18923
C	0.631107	-0.92515	0.485479
C	0.624592	-0.493043	-0.808204
O	-0.209122	0.569188	-0.961817
H	-1.45563	1.65212	0.349297
H	-0.522619	-0.106847	2.26024
H	1.21024	-1.76473	0.902363
H	1.16161	-0.851866	-1.70158
C	4.46815	-0.385938	-0.606461
C	5.42144	0.512379	-1.03706
N	6.35479	0.73105	-0.0791714
C	5.98194	-0.0287196	0.94179
N	4.85005	-0.721743	0.673215
H	3.57481	-0.79632	-1.10353
H	5.45248	1.00664	-2.02174
H	6.5015	-0.115235	1.90968
H	4.35728	-1.38794	1.31712
