18
  This energy is -1.3134 and Call times are: 103488
C	-0.219971	1.04528	-0.381312
C	0.620019	0.191461	-1.03383
C	0.63982	-1.00714	-0.257254
C	-0.189818	-0.779964	0.801265
O	-0.723551	0.468462	0.741496
H	-0.537494	2.07581	-0.610296
H	1.17047	0.386161	-1.96828
H	1.20868	-1.92654	-0.469878
H	-0.479791	-1.41717	1.65281
C	3.96519	0.501568	0.250366
C	4.37594	0.0185181	-0.974007
N	5.62844	-0.493879	-0.901922
C	5.99332	-0.329332	0.362362
N	5.0249	0.266521	1.09769
H	3.02513	0.979992	0.568066
H	3.79099	0.0305437	-1.9081
H	6.95848	-0.62699	0.802938
H	5.07228	0.504169	2.11874
