18
  This energy is -1.5072 and Call times are: 43914
C	-0.769138	-0.833283	0.0215959
C	-0.0110877	-0.567355	-1.08068
C	0.82518	0.534142	-0.723643
C	0.504338	0.844087	0.565298
O	-0.467549	0.019075	1.03626
H	-1.54721	-1.59159	0.208227
H	-0.0380993	-1.09403	-2.04814
H	1.57547	1.03131	-1.35924
H	0.889851	1.61841	1.24871
C	4.12847	-0.599097	-0.896569
C	3.76392	-0.673504	0.431104
N	4.51861	0.155726	1.19224
C	5.34819	0.742334	0.340004
N	5.15262	0.320718	-0.931838
H	3.74438	-1.11829	-1.78901
H	2.96988	-1.31067	0.853441
H	6.11856	1.48818	0.593928
H	5.68057	0.634696	-1.78269
