18
  This energy is -0.8907 and Call times are: 60498
C	-0.85956	-0.217921	0.707155
C	0.0322889	-1.17628	0.324364
C	0.951143	-0.526383	-0.555102
C	0.539678	0.771747	-0.632103
O	-0.564804	0.977872	0.132517
H	-1.73591	-0.259542	1.37463
H	0.0421208	-2.23469	0.630592
H	1.81504	-0.980714	-1.06633
H	0.941819	1.63439	-1.18832
C	4.68154	-0.713608	0.179701
C	4.89121	0.107337	-0.908063
N	6.05453	0.791777	-0.786647
C	6.56461	0.39694	0.372035
N	5.77407	-0.510349	0.992884
H	3.85961	-1.40501	0.424498
H	4.22393	0.218045	-1.77831
H	7.51406	0.740332	0.813471
H	5.95829	-0.971159	1.91753
