18
  This energy is -1.1877 and Call times are: 204261
C	0.145418	-0.856788	-0.728813
C	-0.859896	-0.844544	0.192908
C	-0.714576	0.379964	0.913727
C	0.366712	1.0079	0.368857
O	0.90425	0.266817	-0.635562
H	0.423925	-1.59667	-1.4971
H	-1.62685	-1.62001	0.349507
H	-1.34646	0.74267	1.74032
H	0.847417	1.9718	0.603521
C	5.40636	0.362138	0.789987
C	6.48021	1.07965	0.307114
N	7.18778	0.354153	-0.592608
C	6.5553	-0.809016	-0.667613
N	5.47463	-0.853679	0.14709
H	4.6245	0.622016	1.52122
H	6.7571	2.10782	0.591804
H	6.84084	-1.66284	-1.30298
H	4.81452	-1.66072	0.266296
