18
  This energy is -1.3566 and Call times are: 32885
C	0.737862	0.852308	0.124627
C	1.11429	-0.456532	0.199587
C	-0.0764719	-1.2182	-0.00554143
C	-1.07543	-0.307566	-0.187745
O	-0.596037	0.961831	-0.111445
H	1.31606	1.78598	0.220551
H	2.12871	-0.84651	0.381121
H	-0.168847	-2.31614	-0.0146729
H	-2.15406	-0.43368	-0.377237
C	4.91345	-0.654015	-0.978354
C	4.37371	0.606413	-0.832925
N	4.53562	1.06429	0.432239
C	5.17338	0.0916214	1.06926
N	5.42397	-0.966158	0.261858
H	4.96854	-1.32844	-1.84764
H	3.87037	1.19362	-1.61822
H	5.48105	0.101923	2.12731
H	5.91382	-1.85476	0.529604
