18
  This energy is -0.5086 and Call times are: 78331
C	-0.643579	0.178552	-0.916693
C	-0.951714	-0.764027	0.0197748
C	0.0797822	-0.688312	1.00486
C	0.927193	0.293851	0.583408
O	0.500768	0.834107	-0.58847
H	-1.15097	0.476036	-1.84906
H	-1.81843	-1.44438	0.0171295
H	0.171831	-1.29829	1.91785
H	1.85503	0.696686	1.02169
C	7.05124	0.350511	-0.733224
C	7.20451	-0.0763662	0.568863
N	6.01042	-0.404666	1.11921
C	5.11976	-0.182303	0.162181
N	5.69765	0.27387	-0.974277
H	7.78514	0.692013	-1.48043
H	8.1553	-0.15335	1.12106
H	4.03152	-0.336803	0.240237
H	5.20789	0.521911	-1.86863
