18
  This energy is -1.6069 and Call times are: 102375
C	-0.384871	-0.743295	-0.765367
C	0.304734	-1.13018	0.346
C	0.613975	0.0720512	1.05249
C	0.0860422	1.08747	0.31048
O	-0.527633	0.607705	-0.803179
H	-0.821511	-1.32457	-1.59405
H	0.569132	-2.15896	0.638908
H	1.16581	0.160734	2.00207
H	0.0796794	2.17898	0.464807
C	4.62695	0.132586	1.1625
C	5.10454	-0.905612	0.391001
N	4.77483	-0.73746	-0.912658
C	4.09528	0.400726	-0.949777
N	3.97896	0.963736	0.276224
H	4.69992	0.332105	2.24342
H	5.68111	-1.77298	0.751679
H	3.66052	0.867613	-1.84823
H	3.48857	1.86222	0.507561
