18
  This energy is -1.3378 and Call times are: 104975
C	0.478156	-1.01746	0.150147
C	-0.617797	-0.835032	-0.641043
C	-0.91779	0.560006	-0.577879
C	0.0213251	1.10692	0.246333
O	0.881918	0.157953	0.700051
H	1.05709	-1.92168	0.400086
H	-1.16053	-1.60555	-1.21188
H	-1.73936	1.08617	-1.09
H	0.182851	2.14375	0.58416
C	4.25974	0.152404	0.809838
C	4.11682	0.244953	-0.558429
N	5.29271	0.00945681	-1.18958
C	6.16181	-0.228283	-0.21656
N	5.58765	-0.153815	1.00753
H	3.53465	0.278575	1.62951
H	3.18631	0.477429	-1.10152
H	7.23099	-0.462131	-0.34464
H	6.06341	-0.301256	1.9312
