18
  This energy is -1.0038 and Call times are: 49232
C	0.366741	-0.756834	-0.760989
C	-0.578773	-1.06049	0.173981
C	-0.771928	0.131861	0.936284
C	0.0726024	1.05889	0.399852
O	0.775734	0.53333	-0.637647
H	0.826774	-1.36246	-1.55901
H	-1.08902	-2.02715	0.312914
H	-1.46171	0.27348	1.78377
H	0.263879	2.1123	0.6625
C	6.0365	0.42351	-0.362479
C	5.63247	-0.894755	-0.371314
N	4.37546	-1.02385	0.11834
C	4.0011	0.209642	0.429759
N	4.96781	1.11821	0.158548
H	6.97751	0.90052	-0.679515
H	6.22545	-1.75504	-0.722229
H	3.02993	0.503808	0.859344
H	4.91356	2.15443	0.315309
