18
  This energy is -2.161 and Call times are: 170304
C	0.0977555	0.957825	-0.599513
C	-0.295818	0.950459	0.706405
C	-0.297479	-0.420675	1.10654
C	0.0952263	-1.13015	0.00981494
O	0.340742	-0.304266	-1.04121
H	0.241955	1.78399	-1.31499
H	-0.558605	1.82303	1.3258
H	-0.56181	-0.822559	2.09786
H	0.237115	-2.21178	-0.148914
C	3.95278	-1.01072	0.25317
C	5.28591	-0.719429	0.450837
N	5.57615	0.540555	0.0449896
C	4.42745	1.02907	-0.402751
N	3.41836	0.132139	-0.29861
H	3.36614	-1.92007	0.459237
H	6.04352	-1.39584	0.879021
H	4.26918	2.0376	-0.817533
H	2.41924	0.279289	-0.583851
