18
  This energy is -1.1471 and Call times are: 8060
C	0.723016	0.873185	-0.034612
C	-0.525197	0.979356	0.504895
C	-1.12277	-0.310351	0.364624
C	-0.186979	-1.09079	-0.248217
O	0.946462	-0.384222	-0.499382
H	1.53608	1.60914	-0.146667
H	-0.979548	1.87593	0.956349
H	-2.13257	-0.612548	0.685697
H	-0.205386	-2.14934	-0.555446
C	5.63683	1.15107	0.0635604
C	6.53994	0.130874	-0.147977
N	5.9208	-1.07452	-0.162786
C	4.63848	-0.803144	0.0387986
N	4.41605	0.524946	0.181255
H	5.77198	2.24194	0.136249
H	7.62716	0.242971	-0.290181
H	3.82013	-1.53921	0.0911512
H	3.49007	0.989224	0.349337
