18
  This energy is -1.789 and Call times are: 162117
C	0.0606801	0.571839	0.977609
C	-0.659802	-0.579034	0.848098
C	-0.493214	-0.994054	-0.508414
C	0.314362	-0.0601588	-1.0881
O	0.662199	0.903455	-0.195087
H	0.222777	1.23984	1.83944
H	-1.24942	-1.08496	1.62943
H	-0.927994	-1.88574	-0.987951
H	0.70825	0.0303841	-2.11372
C	4.17687	0.991102	0.359364
C	5.50314	0.65016	0.52033
N	5.76333	-0.566929	-0.0158681
C	4.60288	-0.979467	-0.507607
N	3.61513	-0.0753146	-0.306513
H	3.61189	1.88724	0.661464
H	6.27695	1.26056	1.01376
H	4.42053	-1.93529	-1.0247
H	2.61242	-0.168848	-0.601621
