18
  This energy is -0.7282 and Call times are: 147709
C	0.307861	0.231417	1.0668
C	1.02011	-0.61429	0.268148
C	0.327855	-0.648494	-0.980742
C	-0.746316	0.17933	-0.835017
O	-0.774165	0.725242	0.409256
H	0.464469	0.55967	2.10746
H	1.94064	-1.15936	0.532013
H	0.604935	-1.22535	-1.87771
H	-1.55292	0.459993	-1.53206
C	6.46325	0.235343	0.864385
C	6.25659	0.974524	-0.281062
N	5.30067	0.412051	-1.05975
C	4.91577	-0.671951	-0.39989
N	5.58716	-0.822509	0.766367
H	7.14888	0.382337	1.71399
H	6.7801	1.90361	-0.559576
H	4.1462	-1.39034	-0.725331
H	5.46383	-1.59744	1.46317
