18
  This energy is -0.9323 and Call times are: 152018
C	-0.817461	0.636795	-0.46114
C	0.274506	1.17989	0.149619
C	1.06254	0.0754171	0.596
C	0.38256	-1.04511	0.218612
O	-0.76789	-0.72095	-0.428224
H	-1.68806	1.10252	-0.951457
H	0.50222	2.25084	0.27339
H	2.02272	0.119759	1.13468
H	0.608432	-2.11615	0.34939
C	6.09126	0.749121	-0.588282
C	6.05227	0.556833	0.776508
N	5.1371	-0.38491	1.11133
C	4.61035	-0.77537	-0.0413633
N	5.15243	-0.121101	-1.09573
H	6.70033	1.42122	-1.21346
H	6.66808	1.08075	1.5256
H	3.82458	-1.53702	-0.170537
H	4.90473	-0.251833	-2.10707
