18
  This energy is -1.8113 and Call times are: 176456
C	0.350404	0.975378	-0.460712
C	0.309587	0.777856	0.888248
C	-0.178599	-0.551516	1.07416
C	-0.39301	-1.049	-0.177602
O	-0.0752285	-0.129992	-1.12705
H	0.658454	1.84565	-1.06319
H	0.594657	1.49622	1.6736
H	-0.347295	-1.06879	2.03232
H	-0.764223	-2.02841	-0.521401
C	3.72997	0.182506	-0.871116
C	4.74039	-0.75526	-0.84278
N	5.4374	-0.687625	0.317437
C	4.86159	0.288388	1.00625
N	3.8271	0.844563	0.332394
H	2.97391	0.417727	-1.637
H	4.97894	-1.47944	-1.63871
H	5.15749	0.636663	2.00893
H	3.21553	1.63039	0.663629
