18
  This energy is -0.7578 and Call times are: 36476
C	-0.772396	-0.0232417	-0.83022
C	0.332937	-0.822333	-0.838337
C	1.05163	-0.507712	0.355233
C	0.322037	0.455867	0.987359
O	-0.795184	0.763871	0.277456
H	-1.60621	0.0785504	-1.54411
H	0.613988	-1.55939	-1.60765
H	2.0007	-0.952334	0.695332
H	0.488212	0.995424	1.9342
C	6.41798	-0.76447	-0.534019
C	5.13862	-1.00833	-0.0813414
N	4.60116	0.0994556	0.484756
C	5.54351	1.02702	0.383654
N	6.65828	0.555341	-0.223305
H	7.15001	-1.41503	-1.03845
H	4.59375	-1.96374	-0.153066
H	5.46968	2.06797	0.737496
H	7.53803	1.09266	-0.419771
