18
  This energy is -1.9599 and Call times are: 198275
C	0.612438	0.700098	0.648987
C	-0.0202328	-0.397743	1.15381
C	-0.675894	-1.01538	0.0453217
C	-0.386008	-0.240449	-1.03903
O	0.399799	0.811586	-0.688685
H	1.23642	1.4705	1.13105
H	-0.0247552	-0.738446	2.20166
H	-1.28985	-1.93018	0.0628427
H	-0.674315	-0.329435	-2.09932
C	3.89012	0.818732	-0.845383
C	4.40152	0.950541	0.428291
N	4.24426	-0.192738	1.13871
C	3.63762	-1.03062	0.308914
N	3.40236	-0.46785	-0.900026
H	3.84043	1.52585	-1.68862
H	4.88113	1.8501	0.84736
H	3.34275	-2.06795	0.53528
H	2.93706	-0.924583	-1.72231
