18
  This energy is -0.93 and Call times are: 211606
C	1.04071	-0.308725	-0.328656
C	0.0854619	-1.21744	0.0208029
C	-1.07088	-0.454783	0.369153
C	-0.720181	0.852649	0.201815
O	0.565945	0.960389	-0.22396
H	2.08276	-0.436131	-0.665022
H	0.185119	-2.31472	0.0321379
H	-2.04604	-0.843188	0.704278
H	-1.28706	1.7864	0.350144
C	5.60848	1.17171	-0.020233
C	4.63232	0.442072	0.624647
N	4.81215	-0.887921	0.436785
C	5.89575	-0.983007	-0.321755
N	6.41284	0.231353	-0.624315
H	5.7819	2.25737	-0.0897089
H	3.80149	0.851474	1.22211
H	6.35368	-1.91733	-0.68448
H	7.26427	0.420497	-1.20788
