18
  This energy is -0.8879 and Call times are: 204517
C	-0.658189	0.0920983	0.919079
C	0.499627	0.798763	0.77604
C	1.03605	0.417922	-0.491764
C	0.158679	-0.48785	-1.01154
O	-0.881969	-0.698766	-0.163265
H	-1.40163	0.0637068	1.73255
H	0.932515	1.51624	1.49153
H	1.96754	0.78141	-0.954688
H	0.161616	-1.04615	-1.9621
C	4.79572	0.952168	-0.473462
C	5.24065	0.810089	0.823841
N	5.7694	-0.421032	1.02699
C	5.65294	-1.04035	-0.139841
N	5.072	-0.254317	-1.07699
H	4.31797	1.79823	-0.992577
H	5.18961	1.57384	1.61689
H	5.97662	-2.06976	-0.362977
H	4.87045	-0.514399	-2.07348
