18
  This energy is -0.9256 and Call times are: 62799
C	-0.255842	0.97437	0.521104
C	-1.1984	0.0325977	0.229504
C	-0.499676	-1.03334	-0.415225
C	0.808175	-0.648856	-0.460695
O	0.975236	0.574748	0.106663
H	-0.332536	1.95723	1.01442
H	-2.27745	0.0834327	0.446637
H	-0.929278	-1.97329	-0.797363
H	1.70368	-1.14915	-0.864455
C	4.88028	-0.787349	-0.305355
C	4.67704	0.540364	0.00611388
N	5.84546	1.15484	0.312264
C	6.77004	0.211916	0.191183
N	6.23834	-0.977039	-0.179317
H	4.17804	-1.58405	-0.598016
H	3.70825	1.06593	0.015417
H	7.85132	0.337972	0.361978
H	6.76104	-1.87272	-0.339956
