18
  This energy is -1.0865 and Call times are: 199406
C	0.256932	0.704972	0.85053
C	-0.32948	1.13551	-0.303215
C	-0.491553	-0.0271215	-1.11693
C	0.010126	-1.0655	-0.388599
O	0.471535	-0.636572	0.815616
H	0.567638	1.24658	1.75903
H	-0.618882	2.16822	-0.55591
H	-0.9316	-0.0750738	-2.12596
H	0.0953237	-2.14158	-0.612302
C	6.08147	-0.797079	0.693457
C	5.57778	0.432728	0.326017
N	6.44197	1.09291	-0.482582
C	7.47785	0.275776	-0.616267
N	7.30857	-0.876962	0.0737543
H	5.66734	-1.59446	1.33081
H	4.60629	0.855491	0.629874
H	8.38661	0.471886	-1.20781
H	7.9835	-1.67879	0.126603
