18
  This energy is -1.6055 and Call times are: 165860
C	-0.19077	1.02297	0.451158
C	-0.872176	0.566735	-0.638756
C	-0.35871	-0.739822	-0.902152
C	0.591141	-0.966668	0.0500547
O	0.706922	0.0994071	0.884974
H	-0.251221	1.97367	1.00592
H	-1.6576	1.09706	-1.20086
H	-0.66687	-1.42393	-1.70908
H	1.24513	-1.83391	0.238324
C	3.79684	0.0596443	-1.13562
C	4.66252	-0.843952	-0.556597
N	4.78092	-0.622742	0.775153
C	3.9917	0.414145	1.02138
N	3.37605	0.861841	-0.0985063
H	3.46165	0.184425	-2.17755
H	5.20378	-1.65154	-1.07591
H	3.82785	0.885759	2.0037
H	2.70587	1.6667	-0.164215
