18
  This energy is -0.8038 and Call times are: 61541
C	-0.526739	0.550035	-0.840481
C	-1.20702	-0.0630839	0.170297
C	-0.212101	-0.636129	1.01992
C	0.988339	-0.322602	0.453337
O	0.815031	0.401572	-0.683566
H	-0.876757	1.11728	-1.71853
H	-2.29983	-0.107373	0.304163
H	-0.380127	-1.21306	1.94351
H	2.02266	-0.552689	0.75746
C	7.24981	0.0283238	0.980836
C	6.35206	0.98432	0.555086
N	5.7789	0.627521	-0.619941
C	6.31901	-0.545364	-0.921996
N	7.21208	-0.949624	0.0121344
H	7.89145	-0.0235484	1.87478
H	6.10764	1.92512	1.0747
H	6.09632	-1.15134	-1.81498
H	7.76954	-1.83865	0.000647482
