18
  This energy is -1.0404 and Call times are: 91676
C	0.452034	-1.00937	0.251468
C	1.21689	0.0943882	0.0125445
C	0.29934	1.15351	-0.264011
C	-0.945219	0.603467	-0.169673
O	-0.870801	-0.716691	0.144422
H	0.724811	-2.04707	0.504496
H	2.31687	0.156515	0.0293638
H	0.546462	2.20008	-0.504248
H	-1.94912	1.03943	-0.301444
C	5.42664	1.05797	0.463071
C	5.12795	-0.099408	1.15039
N	4.92324	-1.13405	0.299437
C	5.09427	-0.620485	-0.911193
N	5.39933	0.698027	-0.865795
H	5.64926	2.07823	0.813849
H	5.05649	-0.206434	2.24506
H	5.00796	-1.16537	-1.86507
H	5.58052	1.32639	-1.68652
