18
  This energy is -1.2096 and Call times are: 152754
C	0.603069	0.953822	0.113723
C	-0.724732	0.961975	-0.198131
C	-1.12226	-0.40888	-0.251459
C	-0.00229539	-1.13373	0.0325149
O	1.06077	-0.317654	0.258208
H	1.32494	1.77417	0.25922
H	-1.36047	1.84478	-0.373067
H	-2.1275	-0.800279	-0.475964
H	0.166454	-2.22078	0.103811
C	5.30652	0.750377	0.900378
C	6.29497	0.373172	0.016168
N	5.82235	-0.508599	-0.897956
C	4.54556	-0.677778	-0.582045
N	4.1862	0.0597992	0.49519
H	5.32059	1.43841	1.76058
H	7.34068	0.72147	0.0214306
H	3.8286	-1.33009	-1.10615
H	3.23533	0.0982685	0.937469
