18
  This energy is -1.1502 and Call times are: 159994
C	0.719949	-0.805307	0.345766
C	0.805864	0.485634	0.77758
C	-0.256939	1.18619	0.129674
C	-0.898498	0.261511	-0.64087
O	-0.315259	-0.960163	-0.521053
H	1.327	-1.69577	0.577776
H	1.54365	0.902722	1.48172
H	-0.507025	2.25445	0.231588
H	-1.77024	0.345811	-1.31036
C	5.82396	-0.516817	-0.662628
C	4.99383	-1.12905	0.252353
N	4.16428	-0.230968	0.836985
C	4.47858	0.933986	0.286786
N	5.47373	0.814351	-0.623685
H	6.61284	-0.920732	-1.31689
H	4.9786	-2.2027	0.501135
H	4.01152	1.90578	0.514159
H	5.89772	1.5882	-1.19171
