18
  This energy is -0.7381 and Call times are: 90080
C	1.01152	-0.206318	-0.469746
C	-0.159287	-0.400729	-1.1419
C	-1.19789	-0.0363909	-0.231578
C	-0.570071	0.3485	0.916497
O	0.779452	0.251047	0.788815
H	2.06129	-0.354398	-0.77191
H	-0.279494	-0.764235	-2.1751
H	-2.28347	-0.0612476	-0.418645
H	-0.96541	0.70736	1.88095
C	5.0364	0.208509	0.642724
C	5.70863	-0.989466	0.523969
N	6.77833	-0.869981	-0.299432
C	6.76974	0.3973	-0.690007
N	5.73892	1.0891	-0.149249
H	4.13779	0.487401	1.21566
H	5.44097	-1.93787	1.01766
H	7.49486	0.871053	-1.37117
H	5.51712	2.10308	-0.303835
