18
  This energy is -0.8225 and Call times are: 65185
C	0.47841	0.0392597	-1.02761
C	-0.406114	-0.935645	-0.670468
C	-0.780895	-0.648776	0.677628
C	-0.0923101	0.476106	1.02528
O	0.681723	0.909965	-0.00411251
H	1.02533	0.22169	-1.96721
H	-0.759237	-1.77281	-1.29381
H	-1.48237	-1.2193	1.30733
H	-0.0668562	1.05769	1.96143
C	5.2131	-1.16931	0.0708024
C	4.03591	-0.453981	0.0101706
N	4.27657	0.877557	-0.0646802
C	5.59803	0.987856	-0.0505374
N	6.20815	-0.218305	0.0302091
H	5.40669	-2.25171	0.137732
H	3.01725	-0.874797	0.0190928
H	6.17101	1.92794	-0.0970836
H	7.24219	-0.395299	0.0568204
