18
  This energy is -0.9311 and Call times are: 51905
C	-0.0750711	-0.301974	1.09068
C	-1.17176	0.00902909	0.341731
C	-0.678048	0.332648	-0.958897
C	0.67676	0.190836	-0.889931
O	1.06238	-0.196232	0.35445
H	0.027442	-0.609495	2.14433
H	-2.22295	0.0104112	0.672033
H	-1.27033	0.634832	-1.83752
H	1.46623	0.3336	-1.64598
C	5.15019	0.458917	-0.933688
C	4.46057	1.14774	0.041548
N	3.95176	0.301863	0.970047
C	4.32432	-0.907127	0.572338
N	5.04908	-0.865552	-0.570721
H	5.68782	0.805933	-1.83039
H	4.32104	2.23992	0.0918457
H	4.09352	-1.85704	1.08089
H	5.45637	-1.68595	-1.08288
