18
  This energy is -1.2766 and Call times are: 113075
C	-0.514408	1.00862	-0.0668771
C	-0.332856	0.358434	1.11831
C	0.341007	-0.859271	0.79703
C	0.511756	-0.845712	-0.556127
O	-0.00468068	0.287641	-1.10002
H	-0.98518	1.97653	-0.305151
H	-0.642412	0.701872	2.11847
H	0.657801	-1.64768	1.49856
H	0.978598	-1.57212	-1.24143
C	4.50242	1.02509	0.543356
C	3.74737	0.463803	-0.464608
N	4.26443	-0.725455	-0.858087
C	5.33617	-0.901278	-0.0971198
N	5.52247	0.126811	0.764227
H	4.3898	1.96871	1.10053
H	2.83878	0.895644	-0.91498
H	6.01987	-1.76486	-0.129166
H	6.29647	0.221573	1.4665
