18
  This energy is -1.0364 and Call times are: 144947
C	1.11503	0.178875	0.105377
C	0.450448	0.381664	-1.06832
C	-0.914809	0.0537348	-0.806304
C	-0.96399	-0.320498	0.504385
O	0.266691	-0.250058	1.07664
H	2.1768	0.302041	0.375063
H	0.878665	0.727483	-2.02286
H	-1.75559	0.094746	-1.51729
H	-1.80184	-0.653613	1.13865
C	7.00079	1.10433	-0.0700844
C	6.49829	0.339383	-1.10134
N	6.1277	-0.888361	-0.663375
C	6.39925	-0.885083	0.63465
N	6.92727	0.293853	1.04073
H	7.39243	2.13375	-0.0487807
H	6.39651	0.651366	-2.15356
H	6.23121	-1.71938	1.33461
H	7.2241	0.543034	2.01595
