18
  This energy is -0.8209 and Call times are: 38408
C	0.551158	-0.764316	0.631226
C	1.06248	-0.274437	-0.534508
C	0.0920143	0.649314	-1.02947
C	-0.926682	0.64238	-0.122509
O	-0.663051	-0.215299	0.898225
H	0.947964	-1.49735	1.35265
H	2.02637	-0.537217	-0.999238
H	0.153851	1.24515	-1.95427
H	-1.88019	1.19465	-0.0897789
C	4.96505	0.363048	-0.844471
C	5.02645	-0.896112	-0.285999
N	5.99281	-0.963728	0.661672
C	6.52888	0.248873	0.690998
N	5.94365	1.08523	-0.19873
H	4.31587	0.782315	-1.62953
H	4.39078	-1.75701	-0.549884
H	7.35237	0.578396	1.34484
H	6.1887	2.09199	-0.364977
