18
  This energy is -0.946 and Call times are: 73941
C	0.403383	-1.05999	-0.0104808
C	-0.926072	-0.783097	-0.137978
C	-1.03663	0.639684	-0.0780656
C	0.235026	1.10664	0.0807536
O	1.12722	0.0823653	0.124078
H	0.953506	-2.01524	-7.35596e-05
H	-1.74658	-1.50804	-0.261793
H	-1.95989	1.23721	-0.146193
H	0.63132	2.13104	0.174523
C	5.18544	0.444718	-1.0836
C	6.29351	-0.188703	-0.56197
N	6.07786	-0.574627	0.719071
C	4.84071	-0.182114	0.991128
N	4.26026	0.437554	-0.0637098
H	4.99611	0.885373	-2.07533
H	7.24471	-0.374161	-1.08701
H	4.31085	-0.323127	1.94695
H	3.29026	0.836526	-0.0980782
