18
  This energy is -1.0254 and Call times are: 205318
C	0.400613	1.0386	0.21728
C	0.0306843	0.645705	-1.03538
C	-0.413661	-0.705573	-0.906058
C	-0.276041	-1.01913	0.414213
O	0.219951	0.0343832	1.11501
H	0.80208	1.99312	0.595392
H	0.0670645	1.24711	-1.95792
H	-0.790297	-1.36017	-1.70839
H	-0.492836	-1.94478	0.972265
C	4.40665	-0.86768	0.529297
C	4.38391	0.471074	0.858487
N	5.1882	1.18973	0.0380236
C	5.70792	0.300194	-0.796984
N	5.26765	-0.954655	-0.541819
H	3.88834	-1.73569	0.966861
H	3.80157	0.931299	1.6733
H	6.41608	0.513663	-1.61379
H	5.53186	-1.82752	-1.06101
