18
  This energy is -0.9424 and Call times are: 13871
C	0.0183225	-0.28291	1.09819
C	1.15142	0.0253335	0.404326
C	0.72628	0.322582	-0.92647
C	-0.629083	0.169743	-0.928354
O	-1.0784	-0.199814	0.299878
H	-0.138622	-0.573588	2.14992
H	2.18313	0.0417408	0.790858
H	1.36282	0.615279	-1.7769
H	-1.37757	0.292656	-1.7283
C	5.68777	-0.000822138	-1.16182
C	6.20294	0.886735	-0.240962
N	5.77904	0.591891	1.01199
C	5.00384	-0.474524	0.868969
N	4.91694	-0.870427	-0.423044
H	5.81103	-0.0727523	-2.25415
H	6.8729	1.73456	-0.458193
H	4.47537	-1.00538	1.67714
H	4.36711	-1.68468	-0.791745
