18
  This energy is -1.643 and Call times are: 120251
C	-0.39804	0.888346	0.582072
C	-0.0970189	-0.300507	1.17905
C	0.367893	-1.1561	0.134096
C	0.309932	-0.414555	-1.0092
O	-0.155568	0.836557	-0.754168
H	-0.786788	1.83477	0.992449
H	-0.192756	-0.549938	2.24803
H	0.704288	-2.20079	0.231792
H	0.568064	-0.6586	-2.05278
C	4.35293	1.03126	-0.546085
C	3.9544	0.837386	0.759569
N	3.88195	-0.482663	1.05745
C	4.23419	-1.10534	-0.0591611
N	4.52776	-0.236205	-1.05516
H	4.51895	1.95081	-1.12953
H	3.71784	1.62634	1.49199
H	4.29398	-2.19629	-0.202294
H	4.83081	-0.481185	-2.02953
