18
  This energy is -1.9233 and Call times are: 83703
C	0.490637	0.423346	-0.930836
C	-0.0800411	1.21782	0.0196942
C	-0.582835	0.330991	1.02012
C	-0.275022	-0.92713	0.592616
O	0.380703	-0.889514	-0.597183
H	1.00025	0.666896	-1.87753
H	-0.140837	2.318	0.0166626
H	-1.11098	0.606864	1.94697
H	-0.464997	-1.91752	1.03791
C	3.71442	1.16774	0.118916
C	3.79009	0.236088	1.13254
N	3.87977	-1.02121	0.634885
C	3.85981	-0.870128	-0.68246
N	3.76115	0.431187	-1.04362
H	3.63332	2.26612	0.141831
H	3.78158	0.448591	2.21403
H	3.91465	-1.67876	-1.42901
H	3.72679	0.807367	-2.02268
