18
  This energy is -1.1176 and Call times are: 39819
C	1.03685	-0.232905	-0.396361
C	-0.0713079	-0.256489	-1.19122
C	-1.16829	0.0858485	-0.342958
C	-0.633643	0.288409	0.895386
O	0.711924	0.0980024	0.881112
H	2.09889	-0.429928	-0.616609
H	-0.112152	-0.491393	-2.26698
H	-2.22877	0.169144	-0.630255
H	-1.09795	0.567715	1.85542
C	4.52812	-0.502706	0.825205
C	4.71859	0.847818	0.622842
N	5.55722	1.07249	-0.417701
C	5.88577	-0.134063	-0.859184
N	5.29095	-1.11711	-0.142676
H	3.92388	-1.05173	1.56481
H	4.26592	1.66412	1.20901
H	6.55809	-0.354858	-1.70385
H	5.39167	-2.15046	-0.295364
