18
  This energy is -1.0986 and Call times are: 169321
C	-0.870371	-0.71881	0.110306
C	-0.595691	-0.0788539	-1.06246
C	0.555917	0.726803	-0.807838
C	0.883308	0.508051	0.498047
O	0.0228434	-0.37213	1.07415
H	-1.66196	-1.43553	0.384096
H	-1.14857	-0.165443	-2.01163
H	1.07345	1.38907	-1.52034
H	1.69407	0.912326	1.12612
C	6.32461	0.343825	-0.0461611
C	5.27129	0.859248	-0.771422
N	4.11247	0.225724	-0.467609
C	4.44563	-0.679279	0.442668
N	5.76838	-0.64784	0.730628
H	7.39494	0.603865	-0.0284372
H	5.32672	1.67689	-1.50847
H	3.76038	-1.39057	0.931272
H	6.27391	-1.26189	1.4152
