18
  This energy is -0.9076 and Call times are: 169785
C	0.180981	-0.999008	-0.505599
C	-0.755799	-0.113677	-0.9517
C	-0.685609	1.00747	-0.0695312
C	0.287867	0.708283	0.837775
O	0.827829	-0.513322	0.586513
H	0.479674	-1.99448	-0.873105
H	-1.42873	-0.23768	-1.81534
H	-1.2933	1.92556	-0.113204
H	0.684223	1.27277	1.69772
C	4.7076	0.93269	0.1891
C	4.41674	-0.384911	0.472776
N	5.44343	-1.19791	0.124279
C	6.3677	-0.387753	-0.373702
N	5.97166	0.907022	-0.3565
H	4.12398	1.85599	0.332102
H	3.48447	-0.763492	0.922662
H	7.35246	-0.689993	-0.765025
H	6.52256	1.73381	-0.694405
