18
  This energy is -0.7198 and Call times are: 121073
C	-0.404937	0.935673	-0.496933
C	-1.21106	-0.0970823	-0.117508
C	-0.346527	-1.0755	0.461639
C	0.911573	-0.554267	0.384997
O	0.89455	0.673436	-0.197641
H	-0.630856	1.89907	-0.982816
H	-2.30476	-0.163259	-0.233792
H	-0.636661	-2.05111	0.883666
H	1.88856	-0.952241	0.704939
C	6.11527	0.766777	-0.534352
C	5.59496	0.86902	0.738428
N	4.80804	-0.19464	1.03152
C	4.84005	-0.953861	-0.0553068
N	5.61471	-0.417361	-1.02776
H	6.78402	1.43072	-1.10487
H	5.77326	1.69122	1.4505
H	4.31458	-1.91266	-0.192475
H	5.79892	-0.825652	-1.97677
