18
  This energy is -1.0973 and Call times are: 178568
C	0.683841	0.527518	-0.735178
C	-0.665111	0.447595	-0.92042
C	-1.17104	-0.280846	0.19919
C	-0.0865938	-0.581757	0.969773
O	1.05454	-0.0957675	0.414217
H	1.47851	0.994092	-1.3402
H	-1.24565	0.86021	-1.76115
H	-2.22184	-0.545312	0.399134
H	0.00412864	-1.12874	1.92258
C	4.62596	0.384342	-0.952815
C	4.37845	0.731484	0.358435
N	5.23176	0.0996688	1.20057
C	6.00569	-0.636634	0.414753
N	5.68018	-0.499495	-0.89247
H	4.14263	0.693399	-1.89324
H	3.59946	1.42651	0.71193
H	6.82592	-1.29452	0.744355
H	6.14275	-0.975717	-1.70518
