18
  This energy is -0.9624 and Call times are: 30753
C	-0.165676	-1.02532	-0.455716
C	-0.78984	-0.625344	0.689193
C	-0.332512	0.704386	0.939768
C	0.530745	0.999607	-0.0741377
O	0.644589	-0.0453955	-0.935544
H	-0.21324	-1.96947	-1.02278
H	-1.50096	-1.20822	1.29637
H	-0.618549	1.35749	1.77985
H	1.11951	1.90564	-0.292556
C	5.7849	0.260783	-0.730774
C	5.47094	-0.981525	-0.221614
N	4.38745	-0.917447	0.589836
C	4.0306	0.359756	0.5841
N	4.84213	1.11098	-0.197363
H	6.58579	0.589054	-1.41221
H	6.00681	-1.92293	-0.425228
H	3.18292	0.798886	1.1344
H	4.76738	2.14421	-0.364978
