18
  This energy is -1.5038 and Call times are: 64321
C	-0.245405	0.324262	1.05879
C	-0.322173	-0.976925	0.657047
C	0.0568138	-0.983955	-0.720065
C	0.331719	0.313555	-1.03829
O	0.152401	1.12617	0.036192
H	-0.445088	0.801922	2.03204
H	-0.616186	-1.84473	1.26906
H	0.115066	-1.8583	-1.38807
H	0.659358	0.781434	-1.98115
C	4.86151	-0.863104	0.569953
C	5.00645	-0.516529	-0.756706
N	4.20417	0.526816	-1.07963
C	3.56395	0.826365	0.0424272
N	3.92563	0.0168627	1.06589
H	5.3421	-1.6475	1.17601
H	5.67554	-1.00062	-1.48666
H	2.81984	1.62899	0.170208
H	3.56233	0.0527353	2.04976
