18
  This energy is -0.5202 and Call times are: 83863
C	0.616519	0.721514	-0.621066
C	0.960054	-0.589735	-0.469465
C	-0.0450934	-1.16297	0.367912
C	-0.914128	-0.151411	0.654098
O	-0.52548	1.00661	0.0583238
H	1.0952	1.54289	-1.17914
H	1.83364	-1.10192	-0.903745
H	-0.105781	-2.20797	0.711967
H	-1.83401	-0.127632	1.26115
C	6.13157	-0.656814	0.961936
C	5.20088	-0.360959	-0.0114243
N	5.73736	0.422308	-0.978477
C	6.99609	0.611651	-0.606465
N	7.28273	-0.0186747	0.5572
H	6.0586	-1.25631	1.88325
H	4.15191	-0.69864	-0.0332401
H	7.7509	1.20319	-1.14921
H	8.20598	-0.0208511	1.05606
