18
  This energy is -0.9507 and Call times are: 99960
C	-0.119504	-0.181018	1.11326
C	1.02037	0.34133	0.576398
C	0.790515	0.417077	-0.831277
C	-0.469523	-0.0656694	-1.03036
O	-1.04002	-0.435568	0.146382
H	-0.3962	-0.416568	2.15403
H	1.93163	0.643031	1.11739
H	1.48813	0.789184	-1.59871
H	-1.06604	-0.195825	-1.94823
C	6.73418	-0.310895	0.0456252
C	5.68938	-0.88871	0.735314
N	4.51487	-0.278598	0.444081
C	4.82985	0.674092	-0.422983
N	6.15607	0.695436	-0.695507
H	7.81221	-0.537062	0.0302855
H	5.76199	-1.7349	1.43784
H	4.1283	1.38423	-0.889645
H	6.64985	1.35325	-1.34721
