18
  This energy is -0.8273 and Call times are: 92343
C	0.539373	-0.969795	0.234468
C	1.10912	0.0215317	-0.509195
C	0.134987	1.06347	-0.583695
C	-0.944044	0.616876	0.121018
O	-0.714514	-0.623137	0.627669
H	0.917123	-1.95627	0.549794
H	2.11451	0.0192808	-0.960063
H	0.234928	2.02969	-1.10381
H	-1.9217	1.08016	0.332684
C	5.83105	-0.31274	1.08522
C	4.92586	0.670971	0.747427
N	4.78319	0.762884	-0.597083
C	5.59676	-0.160296	-1.09151
N	6.25118	-0.835789	-0.117322
H	6.19386	-0.665809	2.06361
H	4.37318	1.31604	1.44976
H	5.75164	-0.383659	-2.15938
H	6.94619	-1.61038	-0.252344
