18
  This energy is -0.3845 and Call times are: 172171
C	0.0944515	-0.429254	1.04557
C	1.17004	0.033569	0.346084
C	0.655957	0.486293	-0.907264
C	-0.688394	0.260158	-0.863036
O	-1.0487	-0.298567	0.322297
H	0.0118493	-0.869553	2.05283
H	2.22011	0.054103	0.679281
H	1.2282	0.92763	-1.73904
H	-1.48629	0.449779	-1.59969
C	7.66543	0.324088	-0.728764
C	7.76082	-0.553081	0.330774
N	6.56698	-0.695756	0.956007
C	5.73414	0.0899131	0.286891
N	6.34857	0.72657	-0.738161
H	8.4164	0.678556	-1.4526
H	8.66967	-1.08556	0.655284
H	4.66398	0.236153	0.505059
H	5.90611	1.39872	-1.41173
