18
  This energy is -0.6753 and Call times are: 76378
C	-0.24873	-0.743894	-0.819241
C	0.934976	-0.0672764	-0.781781
C	0.875032	0.761452	0.379999
C	-0.340013	0.5181	0.949929
O	-1.03952	-0.398679	0.230752
H	-0.643421	-1.48781	-1.53062
H	1.76689	-0.144053	-1.5002
H	1.65123	1.45497	0.741449
H	-0.81811	0.92728	1.85505
C	4.47005	-0.0520347	0.324943
C	5.0359	0.839531	-0.561659
N	6.36443	0.612114	-0.702338
C	6.62179	-0.416622	0.0939635
N	5.51207	-0.853184	0.735471
H	3.43414	-0.169179	0.680919
H	4.50935	1.64281	-1.10235
H	7.60537	-0.889934	0.244855
H	5.45612	-1.65012	1.41593
