18
  This energy is -1.1979 and Call times are: 19444
C	0.790961	-0.136388	-0.801361
C	-0.495476	0.208104	-1.09594
C	-1.17705	0.282449	0.157078
C	-0.246939	-0.0231747	1.10674
O	0.960562	-0.281734	0.539207
H	1.66838	-0.306383	-1.44673
H	-0.921699	0.391469	-2.09534
H	-2.23678	0.534917	0.322345
H	-0.317861	-0.0897259	2.20483
C	5.14425	1.08856	-0.0525755
C	5.22406	0.114379	-1.02507
N	4.60094	-1.02242	-0.630205
C	4.13634	-0.754501	0.582637
N	4.43801	0.50565	0.975835
H	5.52727	2.12095	-0.0206382
H	5.72008	0.211412	-2.00455
H	3.56851	-1.44497	1.22689
H	4.18258	0.953333	1.88994
