18
  This energy is -1.8549 and Call times are: 8594
C	0.00149314	-0.4919	1.02198
C	0.410077	-1.14499	-0.103597
C	0.26411	-0.209604	-1.17312
C	-0.220786	0.932508	-0.606698
O	-0.387198	0.777968	0.733241
H	-0.0595041	-0.816054	2.07386
H	0.777405	-2.18145	-0.173691
H	0.495763	-0.376634	-2.23732
H	-0.484883	1.90985	-1.04295
C	3.81852	-0.514047	-0.714236
C	5.15664	-0.823373	-0.592192
N	5.75977	-0.0300093	0.326134
C	4.79946	0.768461	0.772097
N	3.61032	0.516026	0.175591
H	3.02612	-0.939838	-1.35012
H	5.6977	-1.60479	-1.15031
H	4.91241	1.55551	1.535
H	2.70269	1.01073	0.356485
