18
  This energy is -0.7211 and Call times are: 147677
C	1.06594	-0.166714	0.349825
C	0.745594	-0.00760298	-0.966395
C	-0.670429	0.175492	-1.0048
C	-1.09039	0.112105	0.291347
O	-0.043169	-0.0964216	1.13209
H	2.03295	-0.334572	0.851796
H	1.43708	-0.0181158	-1.82421
H	-1.29513	0.335164	-1.8983
H	-2.09364	0.199006	0.739887
C	6.18276	0.962739	-0.344402
C	5.26217	0.874257	0.678252
N	4.78664	-0.388929	0.799692
C	5.40987	-1.08146	-0.144034
N	6.26222	-0.311271	-0.860903
H	6.76747	1.81376	-0.728349
H	4.93256	1.69924	1.33064
H	5.27934	-2.15535	-0.35367
H	6.86814	-0.62488	-1.65825
