18
  This energy is -0.926 and Call times are: 203572
C	-0.480407	1.02229	0.102654
C	0.497481	0.763318	-0.812247
C	0.842261	-0.611702	-0.637421
C	0.0446275	-1.0716	0.368881
O	-0.769441	-0.0870764	0.832573
H	-1.04328	1.94234	0.330542
H	0.932396	1.46971	-1.53748
H	1.59765	-1.18338	-1.20015
H	-0.0385219	-2.06476	0.840024
C	5.74188	-0.904925	0.712528
C	4.49336	-0.474595	0.316099
N	4.58489	0.596977	-0.508441
C	5.88525	0.830533	-0.623098
N	6.62489	-0.048016	0.0943095
H	6.05408	-1.7327	1.36893
H	3.52816	-0.918114	0.610257
H	6.35022	1.63192	-1.21959
H	7.67158	-0.0718635	0.165944
