18
  This energy is -0.6534 and Call times are: 57847
C	0.682364	-0.830437	-0.362153
C	1.14287	0.229844	0.3618
C	0.00211429	1.04764	0.626366
C	-1.05479	0.414909	0.0407314
O	-0.657589	-0.733684	-0.567523
H	1.19993	-1.70738	-0.78446
H	2.18167	0.417269	0.677813
H	-0.0194145	1.9952	1.18829
H	-2.12448	0.675847	-0.0134574
C	5.30616	0.308837	-0.899052
C	5.20082	0.729239	0.409883
N	6.16758	0.174378	1.18061
C	6.87	-0.587348	0.352954
N	6.39024	-0.54015	-0.912428
H	4.70639	0.54583	-1.79217
H	4.44457	1.42298	0.811958
H	7.74528	-1.20075	0.621013
H	6.77146	-1.05265	-1.74506
