18
  This energy is -1.5568 and Call times are: 78395
C	-1.10098	0.216866	0.16496
C	-0.157345	0.461847	1.11885
C	1.08953	0.0645792	0.546485
C	0.797768	-0.388097	-0.706645
O	-0.535371	-0.302337	-0.956435
H	-2.19318	0.366323	0.161642
H	-0.322724	0.880328	2.12464
H	2.08311	0.113802	1.02027
H	1.44047	-0.791398	-1.50635
C	6.03988	1.14763	-0.0192646
C	6.65171	0.454885	1.00392
N	6.79697	-0.855074	0.688618
C	6.27723	-0.974535	-0.525561
N	5.8073	0.205113	-0.995868
H	5.76278	2.20921	-0.118243
H	6.99092	0.876811	1.96401
H	6.21511	-1.90278	-1.1161
H	5.35245	0.370272	-1.92704
