18
  This energy is -2.1554 and Call times are: 113140
C	-0.562266	-0.583771	0.793391
C	-0.114554	0.687615	1.00197
C	0.534257	1.07733	-0.209342
C	0.425749	0.00968695	-1.05121
O	-0.241044	-1.01364	-0.455224
H	-1.11483	-1.28042	1.445
H	-0.229642	1.29053	1.91704
H	1.02223	2.04248	-0.420187
H	0.775936	-0.144719	-2.08503
C	4.50401	-0.27373	-1.10569
C	5.71727	-0.504443	-0.492574
N	5.71015	-0.0599704	0.787623
C	4.49708	0.444562	0.968018
N	3.73208	0.339532	-0.144332
H	4.14721	-0.495168	-2.12412
H	6.59764	-0.983648	-0.951009
H	4.11657	0.903211	1.89488
H	2.73994	0.663534	-0.253607
