18
  This energy is -0.8268 and Call times are: 149596
C	1.01049	0.314801	-0.40768
C	-0.051506	1.16864	-0.348596
C	-1.12694	0.416588	0.215307
C	-0.627181	-0.830428	0.451035
O	0.676803	-0.910427	0.0765508
H	2.0428	0.455804	-0.767852
H	-0.0751991	2.22235	-0.669879
H	-2.15023	0.771275	0.418167
H	-1.09124	-1.73583	0.875479
C	6.58004	0.345819	-0.314671
C	5.75289	0.951773	0.60717
N	4.57851	0.285384	0.722306
C	4.67672	-0.730117	-0.124887
N	5.86492	-0.737482	-0.774291
H	7.59315	0.600345	-0.664468
H	5.98245	1.85786	1.19126
H	3.90813	-1.49799	-0.308918
H	6.18115	-1.43544	-1.4913
