18
  This energy is -1.2032 and Call times are: 17429
C	-0.620743	0.948692	-0.032599
C	-0.478608	0.131245	-1.11517
C	0.361638	-0.941633	-0.687339
C	0.65879	-0.685096	0.618901
O	0.0671782	0.465421	1.03521
H	-1.1771	1.89048	0.104346
H	-0.921071	0.269866	-2.11472
H	0.700179	-1.80024	-1.28923
H	1.27155	-1.23611	1.35113
C	6.06053	-0.0237255	0.194192
C	5.34629	-0.844525	-0.652748
N	4.02619	-0.53898	-0.631088
C	3.92186	0.467544	0.226028
N	5.12086	0.815083	0.750622
H	7.13513	0.0213305	0.432369
H	5.75986	-1.65172	-1.27905
H	2.99139	0.987133	0.506202
H	5.30045	1.57814	1.4483
