18
  This energy is -0.7491 and Call times are: 95671
C	0.500065	-0.798932	0.630906
C	1.15818	-0.133704	-0.36143
C	0.209316	0.777969	-0.916973
C	-0.944871	0.589372	-0.215079
O	-0.78538	-0.370014	0.734212
H	0.830486	-1.58852	1.32562
H	2.20664	-0.271202	-0.671145
H	0.375814	1.48786	-1.74306
H	-1.9347	1.06829	-0.293347
C	7.03113	0.163216	-0.281079
C	6.26419	-0.950754	-0.549464
N	5.00113	-0.798464	-0.0825633
C	4.98456	0.405404	0.47336
N	6.18472	1.02541	0.379531
H	8.08419	0.395664	-0.505935
H	6.5996	-1.86163	-1.07163
H	4.12009	0.881839	0.963185
H	6.42473	1.98087	0.741122
