18
  This energy is -1.9633 and Call times are: 132570
C	0.5102	-0.392976	-0.933631
C	-0.0401681	-1.21995	0.00102758
C	-0.578169	-0.365234	1.01105
C	-0.309073	0.90859	0.604433
O	0.355123	0.910401	-0.581254
H	1.03357	-0.605413	-1.88031
H	-0.0648151	-2.32135	-0.0187845
H	-1.10288	-0.67219	1.93004
H	-0.534278	1.8854	1.06309
C	3.79428	-0.853991	-0.749884
C	4.69374	0.165614	-0.979042
N	4.80432	0.972307	0.104254
C	3.97661	0.455119	1.00204
N	3.34396	-0.647204	0.534889
H	3.45412	-1.68439	-1.38884
H	5.26489	0.333631	-1.90662
H	3.79551	0.843797	2.01711
H	2.64382	-1.23277	1.05273
