18
  This energy is -1.4361 and Call times are: 118557
C	-0.225986	0.792678	-0.779098
C	-1.11026	0.46351	0.205828
C	-0.474877	-0.55749	0.976517
C	0.741585	-0.762109	0.394515
O	0.910376	0.0539748	-0.679043
H	-0.285846	1.52565	-1.60033
H	-2.10972	0.896267	0.372881
H	-0.883745	-1.07374	1.85992
H	1.5658	-1.44976	0.64562
C	4.41632	-0.556567	-0.857115
C	5.72054	-0.775443	-0.466903
N	6.06937	0.0448531	0.553851
C	4.98569	0.769861	0.795965
N	3.9618	0.444868	-0.0284254
H	3.80004	-1.02689	-1.63976
H	6.41606	-1.51055	-0.903609
H	4.88742	1.55249	1.56543
H	3.00417	0.873997	-0.0350589
