18
  This energy is -0.5913 and Call times are: 136161
C	0.995056	-0.453445	-0.301085
C	0.0528748	-1.15456	0.392533
C	-1.04259	-0.257424	0.580193
C	-0.67313	0.912722	-0.0153149
O	0.568414	0.81093	-0.558656
H	1.99579	-0.737154	-0.666165
H	0.122331	-2.19874	0.737431
H	-1.99136	-0.467724	1.09952
H	-1.19662	1.87729	-0.119285
C	7.14082	0.335311	-0.435138
C	6.85752	-0.847977	0.213487
N	5.55445	-0.903649	0.581478
C	5.03135	0.24075	0.162737
N	5.94758	1.02226	-0.456431
H	8.07593	0.724177	-0.868615
H	7.57001	-1.66254	0.422531
H	3.98279	0.557278	0.283425
H	5.78075	1.97076	-0.873287
