18
  This energy is -1.0478 and Call times are: 200494
C	0.325888	-0.666607	0.857807
C	0.42592	-1.0532	-0.446385
C	-0.0766859	0.0389442	-1.21758
C	-0.439484	0.996513	-0.316569
O	-0.200572	0.582505	0.955645
H	0.591351	-1.18187	1.79551
H	0.814642	-2.01132	-0.827152
H	-0.155132	0.0959538	-2.31516
H	-0.873347	2.00085	-0.451905
C	5.63692	-0.176568	0.473046
C	6.84073	-0.115289	1.14253
N	7.86676	0.10136	0.28413
C	7.3016	0.174207	-0.913334
N	5.95853	0.0128886	-0.852421
H	4.60845	-0.336263	0.833999
H	6.98733	-0.223519	2.22957
H	7.82465	0.344167	-1.8682
H	5.28964	0.0290575	-1.66087
