18
  This energy is -1.9034 and Call times are: 44731
C	0.120312	0.953175	0.602813
C	-0.324544	-0.210711	1.15765
C	-0.340504	-1.16807	0.0977803
C	0.0960088	-0.504698	-1.01117
O	0.381951	0.79186	-0.72102
H	0.291759	1.95163	1.03748
H	-0.612561	-0.378273	2.20792
H	-0.643355	-2.22549	0.162906
H	0.245249	-0.838307	-2.05121
C	4.16449	0.578456	1.01593
C	5.12809	-0.362889	0.721841
N	4.98874	-0.825711	-0.544211
C	3.94266	-0.173966	-1.03368
N	3.41066	0.684355	-0.131546
H	3.9684	1.16105	1.93008
H	5.92138	-0.716403	1.4005
H	3.52389	-0.287016	-2.04664
H	2.58185	1.31109	-0.278262
