18
  This energy is -1.0179 and Call times are: 89952
C	0.308708	-0.224766	1.06798
C	1.01137	0.628347	0.268704
C	0.321272	0.650406	-0.981654
C	-0.742177	-0.191174	-0.836078
O	-0.765362	-0.734412	0.409461
H	0.467509	-0.548421	2.10975
H	1.92408	1.18615	0.533093
H	0.592547	1.22871	-1.87947
H	-1.54358	-0.484136	-1.53406
C	7.28072	-0.547994	0.788301
C	6.86339	0.765601	0.826413
N	6.08853	1.0634	-0.244763
C	6.02539	-0.0611765	-0.944742
N	6.72796	-1.06216	-0.363343
H	7.91091	-1.13375	1.47626
H	7.10752	1.50381	1.60763
H	5.47865	-0.206833	-1.8903
H	6.83182	-2.04304	-0.721602
