18
  This energy is -0.7208 and Call times are: 167514
C	-0.0538255	0.968207	-0.588284
C	0.777557	0.80857	0.481152
C	0.562099	-0.523852	0.948426
C	-0.381926	-1.06082	0.123284
O	-0.769391	-0.163519	-0.821035
H	-0.226923	1.82653	-1.25804
H	1.4728	1.55429	0.899045
H	1.05708	-1.01661	1.80065
H	-0.854812	-2.05643	0.103695
C	8.11131	-0.629131	0.575383
C	8.29366	0.0924761	-0.585296
N	7.1435	0.69661	-0.970857
C	6.25101	0.351104	-0.0528601
N	6.78563	-0.44782	0.90081
H	8.80786	-1.23852	1.17288
H	9.23452	0.188018	-1.15142
H	5.19209	0.655137	-0.0308899
H	6.28556	-0.852101	1.73011
