18
  This energy is -0.4113 and Call times are: 128445
C	0.300536	-0.500895	0.972205
C	1.0982	-0.515625	-0.134092
C	0.38638	0.207951	-1.13902
C	-0.783426	0.600972	-0.5581
O	-0.852622	0.176704	0.731171
H	0.437817	-0.930107	1.97828
H	2.0885	-0.988582	-0.232606
H	0.715053	0.407552	-2.1716
H	-1.63657	1.17854	-0.950279
C	7.61993	-0.035616	0.586147
C	7.34596	0.688798	-0.554602
N	6.06783	0.495071	-0.961261
C	5.55085	-0.346326	-0.0761584
N	6.44706	-0.695984	0.876806
H	8.53597	-0.124957	1.19148
H	8.04763	1.34777	-1.0915
H	4.52116	-0.738701	-0.0787295
H	6.28024	-1.34624	1.6834
