18
  This energy is -1.2701 and Call times are: 23452
C	-1.04713	-0.302211	-0.313983
C	-0.612038	0.98929	-0.369597
C	0.736616	0.968104	0.100299
C	1.00661	-0.334473	0.401578
O	-0.0715471	-1.12417	0.154663
H	-2.01543	-0.759401	-0.575962
H	-1.18348	1.86866	-0.707609
H	1.41874	1.82779	0.199052
H	1.91483	-0.821141	0.793413
C	4.44404	0.605052	0.900611
C	4.79261	1.10133	-0.337673
N	5.28862	0.123434	-1.13405
C	5.2479	-0.975324	-0.392632
N	4.74655	-0.73707	0.842469
H	4.01638	1.09562	1.78943
H	4.6951	2.14747	-0.670724
H	5.57275	-1.98092	-0.70485
H	4.61362	-1.44068	1.60962
