18
  This energy is -0.5204 and Call times are: 118962
C	-0.886255	0.637205	-0.308097
C	0.330272	1.17506	-0.00619405
C	1.17312	0.071843	0.329411
C	0.397244	-1.04279	0.202965
O	-0.863429	-0.716122	-0.18563
H	-1.8351	1.10409	-0.619506
H	0.606409	2.24169	-0.018583
H	2.23268	0.113035	0.628965
H	0.621145	-2.11093	0.358517
C	6.37126	0.0483716	1.17374
C	5.37706	0.583511	0.38233
N	5.61288	0.340124	-0.92979
C	6.74906	-0.343407	-0.952295
N	7.24593	-0.545017	0.291116
H	6.51349	0.047839	2.26613
H	4.49382	1.14087	0.73459
H	7.26137	-0.720679	-1.85198
H	8.12918	-1.056	0.536121
