18
  This energy is -1.1261 and Call times are: 110890
C	-0.534811	-0.106775	-0.994473
C	-1.18871	0.230499	0.154019
C	-0.191499	0.264913	1.17603
C	0.983753	-0.0543686	0.561848
O	0.792682	-0.284525	-0.763871
H	-0.895804	-0.250161	-2.02616
H	-2.26529	0.43458	0.269887
H	-0.341174	0.500981	2.24184
H	2.01029	-0.149871	0.952184
C	4.87535	-0.893913	0.442515
C	6.20828	-0.62367	0.669218
N	6.60256	0.486495	-0.000548278
C	5.51835	0.903383	-0.640323
N	4.45056	0.10449	-0.405388
H	4.22084	-1.69919	0.812231
H	6.89255	-1.20985	1.30406
H	5.45084	1.7878	-1.29414
H	3.48337	0.223054	-0.794929
