18
  This energy is -1.4622 and Call times are: 75669
C	0.159144	1.11441	-0.138444
C	-0.548762	0.60222	0.908889
C	-0.527818	-0.815786	0.738776
C	0.191036	-1.04494	-0.397493
O	0.618301	0.122655	-0.946286
H	0.404137	2.15241	-0.41735
H	-1.03674	1.16636	1.71989
H	-0.996331	-1.56967	1.39165
H	0.465171	-1.97996	-0.913094
C	4.86352	0.643752	-0.984554
C	5.97906	0.34816	-0.229999
N	5.65607	-0.417657	0.840382
C	4.34515	-0.596476	0.750205
N	3.82065	0.0238179	-0.333182
H	4.74205	1.23177	-1.90814
H	7.01117	0.67375	-0.438755
H	3.71942	-1.17289	1.45053
H	2.81178	0.0311093	-0.621945
