18
  This energy is -0.5849 and Call times are: 13743
C	-0.466685	-0.954158	-0.397729
C	-0.78743	-0.43804	0.823385
C	-0.00519789	0.748748	0.96397
C	0.724504	0.853093	-0.183645
O	0.455222	-0.178446	-1.02651
H	-0.819782	-1.85472	-0.926466
H	-1.50308	-0.851571	1.55204
H	0.00623549	1.43833	1.8233
H	1.45981	1.60383	-0.516773
C	6.55341	-0.314352	0.420254
C	5.82649	-0.959624	-0.557681
N	4.65444	-0.322378	-0.795881
C	4.65426	0.714283	0.0311364
N	5.7776	0.763046	0.785667
H	7.53513	-0.538138	0.867105
H	6.12672	-1.87357	-1.09565
H	3.85678	1.46888	0.12519
H	6.01276	1.48419	1.51086
