18
  This energy is -0.9676 and Call times are: 177098
C	0.633725	0.386213	0.857691
C	-0.483148	-0.370692	1.05785
C	-0.998895	-0.658166	-0.242721
C	-0.151659	-0.0515557	-1.12283
O	0.851167	0.590893	-0.468144
H	1.34985	0.834268	1.56597
H	-0.901821	-0.694135	2.02439
H	-1.89695	-1.24881	-0.485054
H	-0.153143	-0.00349324	-2.22416
C	6.06411	-0.664173	0.120215
C	5.56519	0.242752	1.03109
N	4.43701	0.832145	0.565955
C	4.23682	0.292914	-0.628941
N	5.19084	-0.615143	-0.943356
H	6.94927	-1.31914	0.152513
H	5.99904	0.482371	2.01558
H	3.40725	0.526922	-1.31545
H	5.25338	-1.17514	-1.82865
