18
  This energy is -0.8538 and Call times are: 38126
C	0.853132	-0.0201568	0.747101
C	0.0929544	-1.11986	0.476618
C	-0.86303	-0.703843	-0.499672
C	-0.602649	0.613354	-0.739602
O	0.44227	1.04739	0.0132399
H	1.70388	0.130117	1.43187
H	0.195156	-2.12334	0.920106
H	-1.64941	-1.32064	-0.96364
H	-1.08206	1.34247	-1.41325
C	4.70171	-0.291918	0.901257
C	4.52944	-0.633497	-0.423429
N	5.5245	-0.127636	-1.19186
C	6.31107	0.525282	-0.347101
N	5.85774	0.455821	0.92697
H	4.10341	-0.520404	1.79757
H	3.705	-1.23589	-0.838482
H	7.23166	1.07165	-0.608302
H	6.30221	0.889035	1.77316
