18
  This energy is -1.2115 and Call times are: 151314
C	-0.687333	0.706244	0.561421
C	-0.786778	-0.649754	0.669842
C	0.234011	-1.18533	-0.173521
C	0.867132	-0.109343	-0.72286
O	0.317465	1.05393	-0.285047
H	-1.26422	1.52129	1.02849
H	-1.50674	-1.21604	1.28227
H	0.462863	-2.24944	-0.344993
H	1.71057	-0.0395053	-1.42925
C	4.64089	0.969972	-0.614092
C	3.96617	0.481276	0.484576
N	4.53906	-0.658175	0.942789
C	5.56529	-0.875535	0.131469
N	5.6691	0.0783818	-0.823966
H	4.46789	1.85945	-1.24055
H	3.07625	0.930446	0.95484
H	6.27287	-1.71809	0.191965
H	6.39461	0.129122	-1.58048
