18
  This energy is -0.9448 and Call times are: 117369
C	-0.0679634	-0.622167	-0.94588
C	0.885971	0.336565	-0.769199
C	0.647651	0.891403	0.525202
C	-0.430879	0.222745	1.02525
O	-0.880789	-0.705246	0.140133
H	-0.271921	-1.30423	-1.78757
H	1.67801	0.624202	-1.47916
H	1.21817	1.69476	1.01838
H	-0.966436	0.312683	1.98459
C	4.48194	0.324594	0.493239
C	4.83327	-0.942293	0.0776544
N	6.08309	-0.9557	-0.446054
C	6.50551	0.298102	-0.355708
N	5.57627	1.10871	0.203775
H	3.56133	0.710774	0.958948
H	4.20732	-1.84691	0.146316
H	7.48667	0.677266	-0.684042
H	5.67133	2.13833	0.38292
