18
  This energy is -1.3617 and Call times are: 82167
C	-0.362251	-1.02686	0.317381
C	-1.21571	-0.0475019	-0.0983494
C	-0.395741	1.08049	-0.4072
C	0.88641	0.690859	-0.15294
O	0.92549	-0.593267	0.290347
H	-0.544185	-2.06066	0.654137
H	-2.31264	-0.112851	-0.17939
H	-0.730513	2.06361	-0.775315
H	1.84539	1.22655	-0.245919
C	5.253	-0.262595	-1.14601
C	6.25105	0.300211	-0.379011
N	5.8471	0.46514	0.904007
C	4.60318	0.00639638	0.932851
N	4.19891	-0.44358	-0.278628
H	5.21938	-0.537938	-2.21212
H	7.25537	0.59022	-0.72841
H	3.94312	-0.023459	1.8147
H	3.26117	-0.852431	-0.512598
