18
  This energy is -0.8307 and Call times are: 164349
C	-0.431862	0.433975	0.954757
C	-1.19543	-0.241761	0.048823
C	-0.307265	-0.626308	-1.00161
C	0.920645	-0.151618	-0.644845
O	0.863028	0.498549	0.547202
H	-0.687459	0.910797	1.91526
H	-2.27574	-0.448662	0.113754
H	-0.562032	-1.19064	-1.91304
H	1.90084	-0.209855	-1.14591
C	5.25878	0.784476	0.690485
C	4.7516	-0.419967	0.250911
N	5.64742	-1.07169	-0.529645
C	6.70632	-0.274587	-0.574138
N	6.52138	0.857289	0.145753
H	4.82504	1.56877	1.33102
H	3.75533	-0.830387	0.482991
H	7.64374	-0.471142	-1.11898
H	7.20882	1.64101	0.266026
