18
  This energy is -0.9674 and Call times are: 61669
C	-1.0146	-0.263075	-0.433325
C	-0.0177579	-1.18392	-0.296502
C	1.0865	-0.482466	0.276816
C	0.666973	0.8051	0.439728
O	-0.613801	0.957037	0.0113063
H	-2.04051	-0.349309	-0.827437
H	-0.0561939	-2.25017	-0.571695
H	2.07447	-0.896722	0.534517
H	1.17753	1.69487	0.843332
C	5.2262	-0.200221	1.15945
C	4.87972	-1.09829	0.172242
N	4.96008	-0.529995	-1.0554
C	5.3549	0.715888	-0.83064
N	5.52909	0.963867	0.489116
H	5.27696	-0.303679	2.25501
H	4.57321	-2.14611	0.323795
H	5.53184	1.48837	-1.59628
H	5.83633	1.87022	0.919681
