18
  This energy is -1.5231 and Call times are: 188654
C	0.990902	0.547891	0.0658034
C	0.904534	-0.764625	-0.29505
C	-0.486229	-1.0884	-0.262402
C	-1.12696	0.0548439	0.11552
O	-0.240241	1.06423	0.320155
H	1.8576	1.21991	0.177492
H	1.73671	-1.43732	-0.557858
H	-0.946758	-2.06204	-0.494863
H	-2.19537	0.276359	0.272635
C	4.85487	0.699125	0.945664
C	5.4294	0.991781	-0.273112
N	5.29842	-0.0445316	-1.13648
C	4.64513	-0.976544	-0.455909
N	4.355	-0.576199	0.804702
H	4.76922	1.28849	1.87241
H	5.93607	1.93212	-0.544948
H	4.3537	-1.97025	-0.832551
H	3.84621	-1.13151	1.53547
