18
  This energy is -0.8683 and Call times are: 128413
C	-0.0403392	0.185011	1.11828
C	-1.01378	0.62402	0.269711
C	-0.613262	0.20414	-1.03543
C	0.569567	-0.454387	-0.86921
O	0.93444	-0.475629	0.43977
H	0.0733025	0.277452	2.21089
H	-1.92269	1.18705	0.536119
H	-1.1499	0.376894	-1.98215
H	1.24049	-0.946167	-1.59258
C	4.55913	0.0926204	-0.273747
C	5.21365	-1.03513	0.174496
N	6.52727	-0.783457	0.392599
C	6.68708	0.495565	0.0808468
N	5.52959	1.06812	-0.326573
H	3.50655	0.264291	-0.549674
H	4.76157	-2.02589	0.344434
H	7.63031	1.06289	0.132691
H	5.39675	2.06518	-0.625704
