18
  This energy is -1.2733 and Call times are: 29711
C	0.19977	1.10817	0.135833
C	-0.363671	0.601157	-0.998119
C	-0.451847	-0.809723	-0.79377
C	0.0654948	-1.04033	0.447016
O	0.468368	0.119783	1.02912
H	0.457735	2.14001	0.425693
H	-0.684967	1.16421	-1.88909
H	-0.8551	-1.55807	-1.49481
H	0.200773	-1.9716	1.02121
C	6.8907	-0.370223	-0.516282
C	5.79976	0.203166	-1.13453
N	4.83329	0.50908	-0.235158
C	5.3228	0.126926	0.936579
N	6.56066	-0.40946	0.820027
H	7.84666	-0.74076	-0.919247
H	5.6927	0.401607	-2.21342
H	4.81684	0.216712	1.91135
H	7.15563	-0.783884	1.59918
