18
  This energy is -0.6604 and Call times are: 34875
C	-0.973234	-0.46209	0.354528
C	-0.815062	0.88464	0.207304
C	0.525086	1.07331	-0.24934
C	1.06755	-0.174775	-0.340854
O	0.166539	-1.12449	0.0241422
H	-1.83566	-1.06541	0.682351
H	-1.56671	1.66673	0.400854
H	1.0191	2.03078	-0.480237
H	2.06981	-0.515578	-0.648407
C	6.92004	-0.305829	0.501076
C	5.66553	-0.375149	1.069
N	4.71421	0.0586077	0.206828
C	5.37602	0.395737	-0.891791
N	6.70901	0.194465	-0.764372
H	7.91485	-0.568353	0.894748
H	5.4298	-0.730372	2.08542
H	4.93373	0.795254	-1.81861
H	7.44207	0.383506	-1.4911
