18
  This energy is -1.1232 and Call times are: 92023
C	-0.632729	-0.55132	-0.762956
C	-0.0896955	-1.17385	0.322379
C	0.62662	-0.164	1.03457
C	0.458083	0.986482	0.321579
O	-0.308367	0.768351	-0.779323
H	-1.26052	-0.931316	-1.58559
H	-0.184084	-2.23748	0.594183
H	1.19804	-0.288985	1.96835
H	0.826971	2.01159	0.48989
C	4.38397	1.00689	0.323997
C	4.58065	-0.111281	1.1064
N	5.20796	-1.09041	0.410476
C	5.3997	-0.581598	-0.799056
N	4.92041	0.680684	-0.901568
H	3.91584	1.97923	0.545236
H	4.28117	-0.229079	2.16057
H	5.88588	-1.09019	-1.64711
H	4.95151	1.29401	-1.75252
