18
  This energy is -0.9662 and Call times are: 185498
C	-0.263134	0.788031	0.772119
C	-1.1721	0.315572	-0.128402
C	-0.474744	-0.648323	-0.918795
C	0.798803	-0.679797	-0.431497
O	0.945814	0.191105	0.601426
H	-0.351229	1.53884	1.57448
H	-2.22776	0.615723	-0.226263
H	-0.882223	-1.24411	-1.75132
H	1.68101	-1.27015	-0.728894
C	5.34957	0.988156	-0.621505
C	6.04788	0.604723	0.503882
N	5.6142	-0.594243	0.963139
C	4.65052	-0.953249	0.125847
N	4.45306	-0.0324085	-0.847114
H	5.42466	1.88513	-1.2566
H	6.85685	1.17172	0.992687
H	4.05702	-1.88016	0.17901
H	3.75082	-0.0857357	-1.62511
