18
  This energy is -1.1969 and Call times are: 13038
C	-1.10257	0.222462	0.145748
C	-0.460365	-0.767106	0.830361
C	0.894898	-0.737828	0.380337
C	0.961233	0.267049	-0.539552
O	-0.249561	0.864313	-0.695328
H	-2.1502	0.564933	0.16693
H	-0.897188	-1.44925	1.57733
H	1.71778	-1.39275	0.709014
H	1.79932	0.650259	-1.14453
C	5.55586	0.768308	0.697007
C	4.98785	-0.43022	1.07389
N	4.43089	-1.0622	0.0123378
C	4.65253	-0.258798	-1.01918
N	5.32742	0.85817	-0.657959
H	6.08869	1.53796	1.27776
H	4.96994	-0.850259	2.09276
H	4.34223	-0.439973	-2.06088
H	5.62078	1.64309	-1.2897
