18
  This energy is -0.9293 and Call times are: 149372
C	-1.03358	0.318587	0.341491
C	-0.814663	-0.277839	-0.865458
C	0.590651	-0.524813	-0.930372
C	1.10644	-0.0575071	0.24264
O	0.128654	0.460979	1.03138
H	-1.95725	0.683926	0.819627
H	-1.56729	-0.519618	-1.63305
H	1.14425	-0.996152	-1.7583
H	2.13813	-0.0358064	0.630456
C	6.06748	0.228155	-1.14236
C	7.01715	-0.188999	-0.233937
N	6.47562	-0.356252	0.99703
C	5.19486	-0.0440432	0.852811
N	4.89904	0.314924	-0.41889
H	6.13809	0.461623	-2.21663
H	8.08338	-0.372287	-0.444671
H	4.42978	-0.0611492	1.64565
H	3.95875	0.60422	-0.784157
