18
  This energy is -2.1456 and Call times are: 138414
C	0.1547	-0.999537	-0.51322
C	0.135514	-0.870817	0.844513
C	-0.0796047	0.517423	1.10264
C	-0.172885	1.11449	-0.120134
O	-0.0321099	0.202962	-1.11829
H	0.290878	-1.88013	-1.16226
H	0.260326	-1.67298	1.58953
H	-0.154743	1.00561	2.08759
H	-0.336023	2.16549	-0.410012
C	4.18266	0.125487	1.06601
C	4.04198	-1.04695	0.354156
N	3.4408	-0.824506	-0.839839
C	3.20942	0.480966	-0.868594
N	3.63845	1.09837	0.257609
H	4.61705	0.329554	2.05758
H	4.36348	-2.04938	0.680698
H	2.72875	1.0366	-1.68985
H	3.56963	2.12297	0.473777
