18
  This energy is -1.559 and Call times are: 59101
C	0.348842	-0.704824	-0.817272
C	-0.541292	-1.08452	0.143908
C	-0.72827	0.0600054	0.977707
C	0.0641099	1.03807	0.452444
O	0.729135	0.588398	-0.644165
H	0.785015	-1.25406	-1.66777
H	-1.01837	-2.07155	0.254654
H	-1.37914	0.136802	1.86346
H	0.240122	2.08132	0.762096
C	3.41207	-0.65751	0.576148
C	4.06238	0.461327	1.05201
N	4.90351	0.971114	0.119731
C	4.7755	0.171574	-0.930494
N	3.88779	-0.825801	-0.705087
H	2.66921	-1.32364	1.04301
H	3.93973	0.909854	2.05132
H	5.30812	0.270807	-1.89002
H	3.61406	-1.58302	-1.37811
