18
  This energy is -1.15 and Call times are: 161893
C	-0.647125	-0.929941	-0.053303
C	-0.877082	0.165605	-0.83258
C	0.13198	1.1137	-0.481819
C	0.889484	0.513821	0.480839
O	0.427927	-0.734728	0.754885
H	-1.16949	-1.89797	0.0195744
H	-1.67704	0.293284	-1.57949
H	0.269943	2.12262	-0.902694
H	1.77113	0.864968	1.04177
C	4.27776	-0.653557	0.327775
C	5.42973	-0.426445	1.05064
N	6.28392	0.375371	0.369498
C	5.66423	0.64466	-0.771593
N	4.45116	0.0474211	-0.844723
H	3.37692	-1.24468	0.557102
H	5.65982	-0.826775	2.05146
H	6.05348	1.27358	-1.5884
H	3.77209	0.107002	-1.64259
