18
  This energy is -0.8266 and Call times are: 155367
C	0.386893	-1.04907	0.190177
C	-0.60441	-0.788076	-0.709586
C	-0.81035	0.624642	-0.665615
C	0.0732868	1.10223	0.257136
O	0.812525	0.0938634	0.789805
H	0.871265	-1.9925	0.491148
H	-1.13718	-1.51723	-1.34092
H	-1.53453	1.2086	-1.25608
H	0.271114	2.12446	0.619289
C	6.39328	-0.351552	0.257391
C	5.50802	-0.964779	-0.603665
N	4.33524	-0.288268	-0.662157
C	4.49233	0.740735	0.159486
N	5.71646	0.746988	0.73834
H	7.42266	-0.610518	0.5521
H	5.69453	-1.88324	-1.18375
H	3.74306	1.51968	0.374142
H	6.08059	1.45397	1.42306
