18
  This energy is -0.951 and Call times are: 171010
C	0.59336	-0.52633	0.810741
C	-0.346706	-1.1688	0.0598244
C	-0.8668	-0.187777	-0.838622
C	-0.198642	0.967586	-0.557421
O	0.69694	0.779111	0.447278
H	1.24777	-0.881759	1.62356
H	-0.644067	-2.22736	0.131412
H	-1.64758	-0.334478	-1.60213
H	-0.267894	1.97716	-0.994702
C	5.63056	0.877518	0.285204
C	4.28498	0.793984	0.574295
N	3.75271	-0.356423	0.0949511
C	4.76425	-0.984184	-0.48929
N	5.91805	-0.280888	-0.40155
H	6.37891	1.65344	0.512016
H	3.68867	1.54319	1.12016
H	4.71538	-1.96129	-0.99635
H	6.85342	-0.564089	-0.783837
