18
  This energy is -0.9166 and Call times are: 82372
C	-0.178633	0.86124	-0.71607
C	-1.19046	0.268949	-0.0190937
C	-0.578087	-0.757762	0.762562
C	0.753889	-0.702243	0.474242
O	1.01571	0.280735	-0.426988
H	-0.178263	1.69338	-1.43912
H	-2.26069	0.528965	-0.0520977
H	-1.07913	-1.45207	1.4561
H	1.60631	-1.29867	0.838789
C	5.95577	-0.522231	0.445948
C	5.22117	-0.934097	-0.645778
N	4.18278	-0.095553	-0.880536
C	4.27286	0.832991	0.0619694
N	5.32551	0.62001	0.886681
H	6.85253	-0.946969	0.924453
H	5.4218	-1.82129	-1.26827
H	3.59427	1.69106	0.19413
H	5.60777	1.21218	1.70578
