18
  This energy is -0.9865 and Call times are: 77021
C	-0.242743	-1.04959	-0.354737
C	-1.20212	-0.0942454	-0.189528
C	-0.516262	1.0748	0.261086
C	0.801682	0.730644	0.331461
O	0.986899	-0.563152	-0.0410972
H	-0.305591	-2.09931	-0.685481
H	-2.28422	-0.201967	-0.36716
H	-0.960864	2.0537	0.502295
H	1.69313	1.30754	0.6277
C	4.85887	-0.0587311	-1.17471
C	4.4383	0.989122	-0.383342
N	4.63376	0.718584	0.930094
C	5.17354	-0.492498	0.953454
N	5.32962	-1.00375	-0.290674
H	4.85656	-0.194285	-2.26795
H	3.99733	1.9355	-0.736558
H	5.47369	-1.05162	1.8543
H	5.73249	-1.94137	-0.535243
