18
  This energy is -1.6977 and Call times are: 208004
C	-0.311573	-0.651429	0.874622
C	0.469121	0.456097	1.03043
C	0.641172	1.00053	-0.27881
C	-0.0495728	0.177632	-1.1191
O	-0.637663	-0.836567	-0.431671
H	-0.698961	-1.38138	1.60425
H	0.882383	0.850147	1.97279
H	1.21435	1.90062	-0.553385
H	-0.19757	0.205198	-2.21116
C	3.64662	-0.835349	0.617293
C	3.84318	0.477002	0.991781
N	4.52068	1.16105	0.0380586
C	4.74357	0.276429	-0.924432
N	4.23597	-0.942121	-0.622645
H	3.14576	-1.6729	1.12836
H	3.50829	0.94253	1.93305
H	5.27354	0.467874	-1.87138
H	4.28251	-1.80401	-1.2195
