18
  This energy is -1.3598 and Call times are: 32213
C	0.467132	1.01912	0.171989
C	0.497793	0.033192	1.114
C	-0.182967	-1.08139	0.535731
C	-0.569536	-0.678173	-0.708598
O	-0.180811	0.602	-0.947471
H	0.864833	2.04726	0.176539
H	0.954028	0.0855528	2.1156
H	-0.359494	-2.06502	0.999839
H	-1.11905	-1.20087	-1.50865
C	5.18363	-0.073884	-1.11016
C	3.89542	0.190398	-0.695672
N	3.80985	0.201481	0.656757
C	5.0403	-0.0549499	1.07967
N	5.90522	-0.228732	0.0523876
H	5.62327	-0.159854	-2.11657
H	3.02619	0.373276	-1.34824
H	5.36314	-0.126822	2.13078
H	6.93021	-0.440988	0.127246
