18
  This energy is -1.3815 and Call times are: 101377
C	-0.37099	0.780968	-0.734068
C	0.272579	1.11246	0.421918
C	0.578116	-0.124302	1.06781
C	0.0942839	-1.10239	0.249503
O	-0.48857	-0.56752	-0.855581
H	-0.788655	1.40314	-1.54259
H	0.508483	2.12621	0.78352
H	1.09801	-0.260116	2.02976
H	0.101743	-2.20105	0.339676
C	5.19825	0.319066	0.961972
C	3.95562	0.771932	0.572172
N	3.56669	0.192512	-0.589512
C	4.56423	-0.616734	-0.919136
N	5.57175	-0.576229	-0.0153358
H	5.82236	0.562422	1.8365
H	3.33275	1.50637	1.10834
H	4.60854	-1.26156	-1.81158
H	6.46688	-1.12272	-0.0520815
