18
  This energy is -1.9459 and Call times are: 79643
C	-0.44668	-0.244692	-1.01341
C	0.371074	-1.1097	-0.347514
C	0.723852	-0.454266	0.871533
C	0.0905332	0.753403	0.842964
O	-0.628837	0.898214	-0.300954
H	-0.956096	-0.323604	-1.98785
H	0.693517	-2.10906	-0.681279
H	1.3742	-0.84441	1.67086
H	0.0719737	1.58646	1.56471
C	5.0755	0.430184	1.06025
C	5.95382	0.00932931	0.0842467
N	5.29103	-0.427957	-1.01393
C	4.00642	-0.27895	-0.720328
N	3.82438	0.235018	0.519143
H	5.24653	0.841044	2.06796
H	7.05388	0.0133781	0.15279
H	3.15766	-0.530318	-1.37656
H	2.90529	0.444859	0.980107
