18
  This energy is -1.2093 and Call times are: 117465
C	0.466022	-0.504204	0.902775
C	-0.856651	-0.175115	0.851687
C	-1.05943	0.43218	-0.425102
C	0.157224	0.420589	-1.04153
O	1.10044	-0.147638	-0.244997
H	1.06907	-0.988678	1.68819
H	-1.61359	-0.343157	1.63457
H	-2.00485	0.828614	-0.828983
H	0.478119	0.781105	-2.03264
C	4.37052	1.05525	-0.52027
C	4.79973	-0.130539	-1.0778
N	4.69619	-1.15205	-0.193321
C	4.20463	-0.602074	0.908729
N	3.9911	0.727023	0.76211
H	4.31024	2.0754	-0.931602
H	5.18225	-0.267298	-2.10241
H	3.98196	-1.12675	1.85179
H	3.60927	1.38258	1.48717
