18
  This energy is -0.951 and Call times are: 100602
C	-0.895038	0.581779	-0.3832
C	-0.124594	1.02463	0.651533
C	0.887878	0.0343476	0.836888
C	0.646763	-0.926234	-0.10094
O	-0.438369	-0.608192	-0.854829
H	-1.78344	1.0154	-0.871011
H	-0.256066	1.95529	1.22659
H	1.69749	0.0445436	1.58423
H	1.16711	-1.8705	-0.330847
C	5.71261	-1.09886	0.0856883
C	4.61048	-0.576308	0.72864
N	4.42395	0.724917	0.399198
C	5.40663	1.00853	-0.44492
N	6.21067	-0.0583052	-0.66622
H	6.16273	-2.10404	0.109217
H	3.94655	-1.11488	1.42433
H	5.58404	1.98166	-0.930473
H	7.05299	-0.0872624	-1.29146
