18
  This energy is -1.1094 and Call times are: 161156
C	0.649089	-0.563413	0.740034
C	-0.676836	-0.83737	0.574972
C	-1.14103	0.067121	-0.428292
C	-0.0577902	0.813953	-0.787744
O	1.04404	0.442369	-0.0842415
H	1.41032	-1.00696	1.40264
H	-1.26865	-1.59989	1.10639
H	-2.16431	0.145315	-0.829394
H	0.0575586	1.62892	-1.52108
C	4.87952	0.0666988	-1.05344
C	6.20653	-0.210889	-0.802192
N	6.46291	-0.207888	0.528512
C	5.29937	0.0705036	1.10062
N	4.3133	0.244758	0.189085
H	4.31681	0.147438	-1.99704
H	6.98356	-0.413279	-1.55725
H	5.11347	0.15876	2.18315
H	3.30883	0.472173	0.390501
