18
  This energy is -0.8332 and Call times are: 81654
C	0.549425	0.852341	0.507984
C	-0.792763	0.888588	0.268004
C	-1.10829	-0.34661	-0.376079
C	0.0689327	-1.02863	-0.472831
O	1.09181	-0.311269	0.0620697
H	1.22729	1.581	0.98213
H	-1.49062	1.7034	0.519329
H	-2.09943	-0.679902	-0.723425
H	0.307764	-2.01863	-0.894863
C	5.14339	0.834519	-0.701483
C	4.37717	-0.246338	-1.08332
N	4.03731	-1.00646	-0.014102
C	4.59059	-0.399473	1.02708
N	5.26839	0.715349	0.664664
H	5.59353	1.65277	-1.28576
H	4.06348	-0.491315	-2.11115
H	4.53071	-0.728657	2.07698
H	5.78979	1.36512	1.30279
