18
  This energy is -0.685 and Call times are: 21593
C	-1.00733	0.513237	-0.0910068
C	0.0261579	1.053	0.616768
C	1.10708	0.126904	0.498148
C	0.638716	-0.897024	-0.271642
O	-0.650842	-0.67764	-0.640318
H	-2.03255	0.873046	-0.277289
H	0.0272173	2.00754	1.16717
H	2.11285	0.220649	0.938296
H	1.11749	-1.82578	-0.622973
C	6.78104	-0.657476	0.42022
C	5.43086	-0.912837	0.53396
N	4.69807	0.0551175	-0.0682035
C	5.59026	0.907729	-0.553663
N	6.86035	0.522388	-0.285343
H	7.66168	-1.21332	0.779454
H	4.97233	-1.77817	1.03973
H	5.368	1.83033	-1.11369
H	7.73822	1.02639	-0.562065
