18
  This energy is -1.1129 and Call times are: 95383
C	-0.920818	-0.287365	-0.596588
C	-0.649553	1.00316	-0.248264
C	0.575609	0.961027	0.484758
C	0.944869	-0.351529	0.519663
O	0.0424675	-1.12807	-0.135823
H	-1.75534	-0.731618	-1.16357
H	-1.25179	1.89529	-0.483875
H	1.11215	1.81399	0.930484
H	1.81504	-0.85441	0.972607
C	5.79375	-1.02252	0.309445
C	6.18966	-0.188952	-0.715036
N	5.39468	0.906061	-0.78893
C	4.50895	0.752393	0.186002
N	4.70742	-0.395002	0.87715
H	6.1948	-1.98573	0.662895
H	7.03469	-0.358032	-1.4022
H	3.69377	1.44981	0.437651
H	4.14157	-0.740713	1.69051
