18
  This energy is -1.2779 and Call times are: 87912
C	0.00141482	0.0929694	-1.13038
C	-0.473447	1.07948	-0.316946
C	-0.30832	0.598882	1.01792
C	0.252871	-0.638892	0.902371
O	0.448984	-0.963918	-0.402585
H	0.0750207	0.0226688	-2.22805
H	-0.897471	2.04841	-0.625928
H	-0.578861	1.1211	1.94969
H	0.556234	-1.3779	1.66203
C	4.79384	-1.15497	-0.116454
C	3.76042	-0.429367	-0.670246
N	3.84473	0.879489	-0.329223
C	4.92634	0.965538	0.43323
N	5.53372	-0.234313	0.591468
H	5.04667	-2.22562	-0.174105
H	2.95549	-0.826813	-1.30976
H	5.31867	1.88268	0.901371
H	6.4027	-0.426616	1.14749
