18
  This energy is -1.124 and Call times are: 138640
C	-0.854953	0.363721	0.65051
C	0.408228	0.867426	0.755519
C	1.18976	0.168463	-0.214415
C	0.335173	-0.700666	-0.826515
O	-0.917758	-0.594932	-0.310767
H	-1.78394	0.600237	1.19483
H	0.754884	1.65244	1.44667
H	2.26285	0.303792	-0.424815
H	0.49361	-1.43669	-1.63176
C	5.18987	1.11641	0.361446
C	5.65886	0.589955	-0.823475
N	5.38181	-0.73353	-0.913695
C	4.74337	-1.02701	0.210979
N	4.60272	0.0548762	1.01305
H	5.23102	2.13728	0.773354
H	6.19217	1.14138	-1.6149
H	4.35716	-2.01835	0.497894
H	4.13543	0.0802169	1.95234
