18
  This energy is -1.0691 and Call times are: 118621
C	0.745632	-0.0259025	0.854262
C	0.762541	-0.939925	-0.157989
C	-0.312807	-0.581031	-1.02686
C	-0.891917	0.520625	-0.468865
O	-0.258291	0.873515	0.680482
H	1.38532	0.0911177	1.7444
H	1.46209	-1.78237	-0.280524
H	-0.612788	-1.08989	-1.95701
H	-1.74847	1.13701	-0.787671
C	6.07586	-0.392974	-0.680829
C	4.78133	-0.866116	-0.64268
N	4.03694	-0.180697	0.258763
C	4.86652	0.714257	0.77787
N	6.10789	0.626681	0.244086
H	6.9475	-0.699489	-1.2807
H	4.37111	-1.68977	-1.24944
H	4.61698	1.45775	1.55194
H	6.93682	1.22209	0.488278
