18
  This energy is -0.6293 and Call times are: 185850
C	-0.685037	0.60614	-0.670611
C	-1.06933	-0.577683	-0.112709
C	0.0484346	-1.0303	0.652704
C	1.0171	-0.0831099	0.494967
O	0.58632	0.923497	-0.310129
H	-1.21653	1.30871	-1.3333
H	-2.04232	-1.08164	-0.228553
H	0.114402	-1.95496	1.24831
H	2.04087	-0.0103099	0.897272
C	6.81689	0.554521	0.208667
C	5.86384	0.196124	1.13839
N	4.81623	-0.428939	0.548203
C	5.11822	-0.458202	-0.742753
N	6.31455	0.122331	-0.99842
H	7.78474	1.06936	0.31699
H	5.91336	0.377361	2.22447
H	4.49899	-0.892534	-1.54409
H	6.77223	0.223857	-1.93729
