18
  This energy is -1.4136 and Call times are: 172876
C	-1.01148	0.0768475	0.507349
C	-0.390707	1.15525	-0.0512726
C	0.841455	0.665428	-0.582279
C	0.864865	-0.669061	-0.301273
O	-0.258873	-1.04565	0.363861
H	-1.97737	-0.0213479	1.02952
H	-0.763115	2.19169	-0.0859291
H	1.61433	1.24658	-1.1105
H	1.6134	-1.4488	-0.517944
C	4.39383	1.09887	-0.112316
C	4.84906	0.498922	1.04267
N	5.24264	-0.776502	0.808357
C	5.03238	-0.967072	-0.487058
N	4.52133	0.134229	-1.08669
H	4.00127	2.11025	-0.303437
H	4.90056	0.963505	2.04084
H	5.23504	-1.89384	-1.04765
H	4.2701	0.234212	-2.10067
