18
  This energy is -0.7422 and Call times are: 165214
C	0.995384	0.352335	0.414092
C	-0.177163	0.518246	1.09084
C	-1.19201	-0.045479	0.258718
C	-0.550032	-0.506112	-0.853063
O	0.786342	-0.27152	-0.775075
H	2.03152	0.630534	0.667619
H	-0.31374	0.990253	2.07707
H	-2.27188	-0.0974514	0.471503
H	-0.925952	-1.01228	-1.75735
C	4.92159	0.112673	-0.457635
C	5.33068	0.498305	0.801364
N	6.64228	0.218431	0.996038
C	7.04533	-0.338708	-0.137878
N	6.04456	-0.424926	-1.04596
H	3.94345	0.180501	-0.959804
H	4.70295	0.973465	1.57274
H	8.06251	-0.701663	-0.356588
H	6.11135	-0.825063	-2.01378
