18
  This energy is -0.7725 and Call times are: 39145
C	-1.08176	0.0655808	0.334502
C	-0.445852	-1.12658	0.148082
C	0.88178	-0.800983	-0.266045
C	0.939967	0.561398	-0.296132
O	-0.250361	1.10704	0.0677488
H	-2.1105	0.3038	0.651051
H	-0.869214	-2.13417	0.288142
H	1.69244	-1.50594	-0.510912
H	1.7585	1.25265	-0.555799
C	5.03629	-0.663404	-0.127494
C	6.18336	-0.994293	0.562353
N	7.09487	0.00680533	0.503518
C	6.51548	0.955142	-0.220076
N	5.27311	0.598938	-0.62408
H	4.09949	-1.21839	-0.294601
H	6.36959	-1.93744	1.10147
H	6.95621	1.92994	-0.484193
H	4.61555	1.17469	-1.20493
