18
  This energy is -1.2911 and Call times are: 211542
C	-0.0280268	-0.662231	0.920361
C	0.00695912	-1.1709	-0.344709
C	0.0348398	-0.0420647	-1.21939
C	0.0144307	1.05677	-0.411607
O	-0.0240057	0.696632	0.898291
H	-0.0575013	-1.15512	1.90598
H	0.0125691	-2.23436	-0.633018
H	0.0663645	-0.0562745	-2.3207
H	0.0237495	2.13456	-0.643016
C	5.3999	-0.688099	-0.319054
C	4.14572	-1.09838	0.0807487
N	3.3556	-0.0376525	0.375839
C	4.11672	1.02663	0.159923
N	5.35836	0.687042	-0.260315
H	6.28936	-1.25836	-0.63081
H	3.79679	-2.14077	0.161566
H	3.81486	2.07791	0.293824
H	6.14039	1.34578	-0.496409
