18
  This energy is -0.9744 and Call times are: 18448
C	0.00873335	-0.500598	1.01771
C	-0.83807	0.525041	0.715443
C	-0.552512	0.881971	-0.637766
C	0.443582	0.0429382	-1.04297
O	0.798638	-0.808075	-0.0446119
H	0.145341	-1.08815	1.94041
H	-1.58851	0.984192	1.37885
H	-1.03753	1.67289	-1.23216
H	0.977515	-0.047977	-2.00313
C	5.19254	0.634332	0.794741
C	4.84109	-0.695343	0.892668
N	4.16266	-1.10371	-0.207099
C	4.0935	-0.0314448	-0.984337
N	4.6998	1.04223	-0.424689
H	5.74015	1.29706	1.48354
H	5.06488	-1.36735	1.73716
H	3.61051	0.0227855	-1.97328
H	4.77936	2.00246	-0.840488
