18
  This energy is -0.9727 and Call times are: 185690
C	-1.00837	0.399489	-0.331651
C	-0.0250815	1.21064	0.153684
C	1.07501	0.352152	0.4585
C	0.666861	-0.907818	0.132525
O	-0.602997	-0.89754	-0.35159
H	-2.02685	0.619948	-0.69131
H	-0.0699394	2.30385	0.283972
H	2.05269	0.647407	0.872112
H	1.17906	-1.88186	0.196988
C	5.94148	-0.920864	0.719087
C	6.82294	-0.481314	-0.245779
N	6.33906	0.608585	-0.889586
C	5.16188	0.844282	-0.326262
N	4.87671	-0.0504707	0.649281
H	5.99478	-1.76335	1.42684
H	7.79939	-0.931077	-0.488915
H	4.46811	1.6588	-0.58983
H	4.00969	-0.076243	1.23993
