18
  This energy is -1.142 and Call times are: 135291
C	-0.242964	-0.788009	-0.778724
C	0.861611	-0.864406	0.0178005
C	0.821253	0.292661	0.854273
C	-0.304422	0.973981	0.495064
O	-0.966502	0.328365	-0.500849
H	-0.620626	-1.45513	-1.57092
H	1.62794	-1.65613	0.0164505
H	1.55007	0.576418	1.63042
H	-0.73824	1.9168	0.86674
C	5.87253	-0.0734769	-0.884808
C	5.41797	1.07744	-0.276602
N	4.53224	0.792333	0.708647
C	4.43769	-0.530419	0.711651
N	5.22653	-1.09876	-0.230845
H	6.5862	-0.230225	-1.70922
H	5.71324	2.10842	-0.531045
H	3.80579	-1.13403	1.38291
H	5.32692	-2.12493	-0.426194
