18
  This energy is -0.8218 and Call times are: 78299
C	-0.306106	-1.0544	0.284498
C	0.780423	-0.436755	0.830706
C	0.836976	0.858064	0.230404
C	-0.219987	0.917361	-0.629647
O	-0.928904	-0.241966	-0.609416
H	-0.735405	-2.05679	0.446295
H	1.47263	-0.851362	1.58107
H	1.58175	1.64698	0.422789
H	-0.570599	1.71659	-1.30311
C	6.3498	-0.606705	-0.542999
C	5.97048	-0.715252	0.778167
N	4.95592	0.135577	1.06673
C	4.70678	0.769545	-0.0710892
N	5.52076	0.357358	-1.07165
H	7.12515	-1.12983	-1.12499
H	6.41069	-1.39224	1.52833
H	3.93935	1.54475	-0.227129
H	5.5204	0.705789	-2.06153
