18
  This energy is -0.7317 and Call times are: 177805
C	-1.06352	0.300278	-0.255263
C	-0.2451	1.08474	0.503145
C	0.992124	0.377939	0.60228
C	0.820535	-0.776044	-0.104299
O	-0.429031	-0.840045	-0.634867
H	-2.10437	0.439347	-0.59075
H	-0.488247	2.06298	0.948132
H	1.89897	0.699216	1.13941
H	1.50116	-1.62042	-0.30185
C	6.02811	0.979306	0.640031
C	4.92017	0.608227	-0.0920184
N	5.11758	-0.582975	-0.707306
C	6.34334	-0.94949	-0.358291
N	6.93402	-0.0408698	0.453557
H	6.22931	1.86753	1.25981
H	3.98188	1.17867	-0.187246
H	6.85725	-1.87345	-0.668825
H	7.89834	-0.101906	0.862953
