18
  This energy is -1.1619 and Call times are: 168827
C	-0.834548	0.754209	-0.145259
C	-0.0967777	0.692771	1.0003
C	0.84044	-0.3673	0.805382
C	0.592656	-0.860075	-0.442075
O	-0.4271	-0.186924	-1.03704
H	-1.66587	1.41323	-0.445007
H	-0.201992	1.33002	1.89301
H	1.60636	-0.715381	1.51693
H	1.06538	-1.67604	-1.01303
C	5.17952	0.823141	0.832476
C	6.12979	0.788902	-0.166
N	5.9747	-0.30493	-0.95085
C	4.93218	-0.946833	-0.441212
N	4.41752	-0.306766	0.635371
H	4.99767	1.54744	1.64232
H	6.92454	1.53386	-0.334141
H	4.5038	-1.88982	-0.817367
H	3.59477	-0.612909	1.21037
