18
  This energy is -1.1146 and Call times are: 168282
C	-0.539144	-0.238279	0.968993
C	-1.0544	0.613822	0.0368912
C	-0.099774	0.655618	-1.02474
C	0.914561	-0.174632	-0.647674
O	0.662862	-0.729064	0.567343
H	-0.925004	-0.573419	1.94575
H	-2.01077	1.15832	0.0914524
H	-0.16883	1.23896	-1.95696
H	1.85696	-0.451618	-1.14808
C	5.10759	-0.832888	-0.772514
C	4.88943	0.502364	-1.03832
N	4.54917	1.17547	0.0875798
C	4.55621	0.261274	1.04821
N	4.88685	-0.965605	0.580204
H	5.39472	-1.67012	-1.42837
H	4.97145	0.992112	-2.02233
H	4.32688	0.436118	2.11173
H	4.96093	-1.84953	1.14097
