18
  This energy is -0.8509 and Call times are: 170850
C	-0.00511532	1.0922	-0.305746
C	1.14724	0.41552	-0.0326957
C	0.748937	-0.912728	0.309694
C	-0.611656	-0.93047	0.215647
O	-1.08901	0.285556	-0.159086
H	-0.185184	2.13614	-0.610731
H	2.17469	0.811945	-0.0687693
H	1.40616	-1.7509	0.591868
H	-1.34593	-1.73465	0.387063
C	5.66113	-0.352321	1.11131
C	5.00874	0.78731	0.690859
N	5.00992	0.880379	-0.66112
C	5.66057	-0.197416	-1.07782
N	6.07342	-0.972393	-0.0470161
H	5.85471	-0.752595	2.1192
H	4.53721	1.54406	1.33881
H	5.86288	-0.467875	-2.1267
H	6.6061	-1.87385	-0.116876
