18
  This energy is -0.6716 and Call times are: 179988
C	1.12111	0.16772	-0.0370792
C	0.344644	0.170628	-1.15844
C	-0.989948	-0.0709431	-0.710534
C	-0.911215	-0.200145	0.645003
O	0.37061	-0.0572506	1.07339
H	2.20517	0.311747	0.101921
H	0.678231	0.327179	-2.19686
H	-1.89686	-0.13893	-1.33262
H	-1.68411	-0.39224	1.40723
C	7.99019	0.872156	-0.00648972
C	7.74998	-0.0192275	1.01766
N	6.76908	-0.893065	0.68488
C	6.40215	-0.54511	-0.541055
N	7.10893	0.513897	-1.00209
H	8.70213	1.70819	-0.0943471
H	8.26688	-0.0474875	1.99073
H	5.62114	-1.03188	-1.14712
H	7.00533	0.974334	-1.93939
