18
  This energy is -0.6235 and Call times are: 124128
C	0.72131	0.47563	0.734771
C	-0.0236743	1.21251	-0.138372
C	-0.795946	0.270966	-0.884837
C	-0.454712	-0.958161	-0.401951
O	0.470724	-0.85199	0.587649
H	1.45619	0.772995	1.50078
H	-0.0288603	2.30909	-0.245992
H	-1.51895	0.492388	-1.68629
H	-0.79437	-1.97086	-0.674571
C	4.64973	0.00369965	0.248927
C	5.24964	-0.504598	-0.883721
N	6.59409	-0.340079	-0.840289
C	6.82736	0.267971	0.31491
N	5.68706	0.497153	1.00829
H	3.59329	0.0477244	0.558007
H	4.73645	-0.987094	-1.73148
H	7.81432	0.568209	0.70221
H	5.6082	0.962148	1.94575
