18
  This energy is -0.6254 and Call times are: 95415
C	1.06085	-0.209127	0.342443
C	0.662268	-0.385862	-0.949947
C	-0.718912	-0.0237167	-0.98615
C	-1.04242	0.342351	0.287313
O	0.0325317	0.235229	1.11194
H	2.03539	-0.362323	0.834423
H	1.279	-0.736115	-1.79319
H	-1.38597	-0.0373579	-1.86304
H	-1.98965	0.693046	0.728921
C	5.31248	-0.524137	0.367665
C	5.4228	0.726969	-0.201288
N	6.71198	1.01357	-0.505247
C	7.39882	-0.0556734	-0.126303
N	6.60009	-1.01072	0.406166
H	4.43798	-1.08397	0.735604
H	4.59528	1.42797	-0.397907
H	8.48863	-0.191812	-0.215751
H	6.90382	-1.94403	0.777569
