18
  This energy is -1.2073 and Call times are: 102087
C	-0.555494	-0.381988	0.912092
C	-0.844567	0.817146	0.32995
C	0.0538878	0.942892	-0.773265
C	0.812679	-0.190501	-0.767895
O	0.454102	-1.01082	0.254604
H	-0.989917	-0.893815	1.78648
H	-1.61336	1.54056	0.645735
H	0.120201	1.78319	-1.48291
H	1.62837	-0.527367	-1.42852
C	5.75416	-0.588235	-0.358686
C	5.36682	0.676483	-0.748044
N	4.21481	1.04461	-0.136601
C	3.88871	0.0121932	0.629168
N	4.78548	-0.997566	0.530305
H	6.62164	-1.20535	-0.641867
H	5.89795	1.32994	-1.4592
H	3.00393	-0.0570727	1.28232
H	4.74968	-1.91708	1.03475
