18
  This energy is -1.0128 and Call times are: 66606
C	-0.232135	0.516605	0.982667
C	-0.0499723	1.20624	-0.179912
C	0.218836	0.222562	-1.18003
C	0.177208	-0.981353	-0.540318
O	-0.0969819	-0.820591	0.78104
H	-0.459858	0.856467	2.00633
H	-0.0998854	2.29812	-0.319234
H	0.418778	0.400113	-2.24895
H	0.323505	-2.01019	-0.908216
C	4.90819	-0.691157	0.906776
C	4.05393	-0.154582	-0.0331514
N	4.73059	0.594532	-0.937287
C	5.99981	0.52296	-0.559698
N	6.15876	-0.240641	0.547207
H	4.72093	-1.34007	1.77706
H	2.96145	-0.294554	-0.0751162
H	6.85325	1.01047	-1.0579
H	7.06247	-0.449664	1.038
