18
  This energy is -0.8072 and Call times are: 185306
C	-0.424397	0.975237	-0.393954
C	-0.177728	0.768525	0.931488
C	0.344119	-0.55741	1.02993
C	0.370275	-1.04391	-0.244039
O	-0.0955613	-0.121248	-1.12648
H	-0.827564	1.84679	-0.935344
H	-0.34634	1.47853	1.75705
H	0.660559	-1.07985	1.947
H	0.693207	-2.01726	-0.648451
C	6.79297	-1.05971	0.511925
C	5.75745	-0.468128	-0.18009
N	6.11218	0.757504	-0.636716
C	7.363	0.925636	-0.229528
N	7.81884	-0.142213	0.46725
H	6.86989	-2.03609	1.01619
H	4.76074	-0.903712	-0.358073
H	7.9917	1.81158	-0.414099
H	8.77211	-0.250577	0.892438
