18
  This energy is -0.7542 and Call times are: 139508
C	0.902817	-0.0634811	0.683588
C	0.657341	1.0233	-0.103192
C	-0.551082	0.731788	-0.80665
C	-0.93738	-0.507398	-0.387643
O	-0.0610272	-1.00798	0.52254
H	1.7179	-0.283829	1.39235
H	1.26616	1.93844	-0.180439
H	-1.06549	1.37597	-1.53776
H	-1.8037	-1.13336	-0.657676
C	6.61446	-0.557627	-0.640935
C	6.7046	-0.20946	0.690155
N	5.58095	0.423184	1.10691
C	4.79671	0.467325	0.0384294
N	5.3748	-0.111009	-1.04089
H	7.32118	-1.07437	-1.30957
H	7.56027	-0.403414	1.35728
H	3.78936	0.911422	-0.00891948
H	4.95807	-0.201873	-1.99971
