18
  This energy is -0.9265 and Call times are: 174886
C	-0.943144	-0.625991	0.0708176
C	0.149273	-1.02883	-0.639618
C	1.1174	0.0107773	-0.491106
C	0.531132	0.957134	0.296974
O	-0.727476	0.584689	0.649397
H	-1.92207	-1.10379	0.240116
H	0.262028	-1.96423	-1.21094
H	2.13003	0.0416849	-0.924384
H	0.899264	1.92584	0.672912
C	5.79517	0.400783	-0.989583
C	4.93937	-0.673539	-0.868778
N	4.55986	-0.853456	0.419674
C	5.17786	0.105603	1.09562
N	5.93486	0.888281	0.290659
H	6.29789	0.8383	-1.86673
H	4.58897	-1.32206	-1.68822
H	5.11104	0.280203	2.18157
H	6.51724	1.70993	0.58561
