18
  This energy is -0.7361 and Call times are: 151346
C	0.561794	-0.266949	-0.948434
C	0.60109	0.982767	-0.403421
C	-0.218476	0.925717	0.764986
C	-0.686247	-0.353825	0.830827
O	-0.219743	-1.09608	-0.207654
H	1.03972	-0.687397	-1.84847
H	1.15195	1.85708	-0.785817
H	-0.429399	1.747	1.46862
H	-1.34867	-0.853651	1.55651
C	5.49389	1.05226	0.516326
C	4.47644	0.275844	0.00336199
N	4.95818	-0.878153	-0.518876
C	6.26949	-0.81788	-0.330611
N	6.64207	0.326631	0.289767
H	5.48251	2.03694	1.01009
H	3.4034	0.527667	0.00072984
H	7.00334	-1.58435	-0.627619
H	7.6194	0.607689	0.548819
