18
  This energy is -0.9826 and Call times are: 171429
C	-0.422023	-1.04573	-0.121461
C	0.737288	-0.651582	-0.722313
C	0.93447	0.709472	-0.336606
C	-0.121751	1.0269	0.465896
O	-0.960123	-0.0332472	0.608158
H	-0.962265	-2.00657	-0.134492
H	1.38829	-1.25841	-1.37197
H	1.76875	1.36773	-0.627752
H	-0.387633	1.95983	0.989539
C	6.51883	-0.203585	-0.30309
C	5.68193	0.759341	-0.826074
N	4.45871	0.711619	-0.244724
C	4.53646	-0.277151	0.635566
N	5.75845	-0.860531	0.638414
H	7.56673	-0.459302	-0.526816
H	5.93881	1.48766	-1.61246
H	3.72831	-0.615829	1.30371
H	6.06772	-1.66081	1.2427
