18
  This energy is -1.4183 and Call times are: 164702
C	0.00192548	-0.541292	-0.996695
C	-0.779218	-0.938268	0.0485794
C	-0.507009	-0.0222006	1.11011
C	0.416447	0.853704	0.619808
O	0.738706	0.551616	-0.665456
H	0.12266	-0.947031	-2.01456
H	-1.4771	-1.79067	0.0699578
H	-0.951878	-0.0231284	2.11817
H	0.915933	1.72258	1.07895
C	4.97948	1.01699	0.122592
C	4.93024	0.223211	-1.00375
N	4.16858	-0.877643	-0.792785
C	3.74691	-0.767224	0.459663
N	4.2087	0.358251	1.05434
H	5.4914	1.97216	0.320423
H	5.43065	0.42511	-1.96483
H	3.09812	-1.48201	0.99106
H	4.01625	0.669712	2.03781
