18
  This energy is -0.8772 and Call times are: 165828
C	0.904406	0.403629	-0.552752
C	0.061702	-0.516097	-1.10441
C	-0.93877	-0.771235	-0.117457
C	-0.619121	0.0151028	0.95019
O	0.503717	0.73934	0.701743
H	1.8119	0.891505	-0.944784
H	0.137051	-0.969391	-2.10588
H	-1.79335	-1.46168	-0.201561
H	-1.10369	0.14798	1.93141
C	4.76121	0.692252	0.156668
C	4.77175	-0.579998	-0.374758
N	6.02878	-1.08528	-0.40792
C	6.79513	-0.130123	0.100998
N	6.07783	0.961946	0.456593
H	3.93742	1.40115	0.336637
H	3.89488	-1.14238	-0.734843
H	7.8877	-0.178099	0.236041
H	6.45314	1.84572	0.880083
