18
  This energy is -0.5338 and Call times are: 60178
C	-0.617039	0.0995868	0.946439
C	-0.787062	-0.930435	0.0686454
C	0.157754	-0.710686	-0.979759
C	0.821734	0.434222	-0.65008
O	0.361424	0.942528	0.52327
H	-1.12262	0.342383	1.89548
H	-1.50572	-1.76159	0.151146
H	0.317297	-1.33759	-1.87174
H	1.63077	0.982777	-1.15979
C	6.73026	0.492296	0.673349
C	6.63841	-0.834754	0.31052
N	5.55422	-1.05328	-0.472618
C	4.97568	0.133693	-0.59516
N	5.64682	1.09839	0.0775449
H	7.46543	1.03031	1.29271
H	7.33501	-1.63845	0.599788
H	4.05888	0.352608	-1.16593
H	5.39063	2.11446	0.134408
