18
  This energy is -1.0379 and Call times are: 88335
C	-0.509516	0.892509	0.479815
C	-0.903423	0.386615	-0.724047
C	-0.0340082	-0.715354	-0.988434
C	0.814435	-0.78558	0.0772048
O	0.538385	0.1888	0.983511
H	-0.888353	1.73841	1.07663
H	-1.72391	0.752718	-1.3619
H	-0.0463827	-1.37352	-1.87204
H	1.6453	-1.47296	0.306151
C	4.18289	0.116913	-0.580436
C	4.62859	0.888468	0.471798
N	5.84567	0.474219	0.900304
C	6.15384	-0.550429	0.116881
N	5.18329	-0.805302	-0.792327
H	3.25554	0.157494	-1.17366
H	4.09377	1.73662	0.929464
H	7.07734	-1.14959	0.165805
H	5.19135	-1.56138	-1.52003
