18
  This energy is -2.0032 and Call times are: 59806
C	-0.456825	0.202476	1.01819
C	0.736062	0.739987	0.632866
C	0.97134	0.260383	-0.6918
C	-0.0985426	-0.527867	-0.999022
O	-0.980595	-0.574532	0.0338467
H	-1.03216	0.294947	1.95397
H	1.38519	1.40727	1.22232
H	1.83916	0.48188	-1.33361
H	-0.346516	-1.10272	-1.90638
C	5.00164	-1.06964	0.449025
C	6.2113	-0.561344	0.0253514
N	6.07429	0.705393	-0.436293
C	4.78454	0.981899	-0.299532
N	4.09524	-0.056397	0.229993
H	4.7307	-2.04805	0.876626
H	7.18047	-1.08594	0.0445058
H	4.29191	1.92937	-0.571265
H	3.06637	-0.0842492	0.434695
