18
  This energy is -0.5935 and Call times are: 146778
C	-1.11981	-0.165622	0.0707004
C	-0.215796	-1.09572	0.492653
C	1.07203	-0.530782	0.242722
C	0.841301	0.694677	-0.309896
O	-0.491751	0.934135	-0.42234
H	-2.22219	-0.166501	0.0672784
H	-0.433947	-2.08082	0.93548
H	2.0509	-0.990766	0.453239
H	1.5308	1.47986	-0.661073
C	6.92146	-0.316648	-0.781049
C	6.73445	0.937398	-0.239253
N	5.69382	0.944417	0.62882
C	5.23699	-0.30054	0.625566
N	5.94381	-1.09939	-0.208594
H	7.65654	-0.694831	-1.50918
H	7.33175	1.83724	-0.459161
H	4.3875	-0.681311	1.21516
H	5.77857	-2.12049	-0.385544
