18
  This energy is -1.529 and Call times are: 132860
C	0.228645	0.919381	-0.623586
C	0.379813	-0.347095	-1.10687
C	-0.00132585	-1.21987	-0.0423915
C	-0.351756	-0.409693	0.997407
O	-0.217373	0.89994	0.660042
H	0.402551	1.90437	-1.08706
H	0.725081	-0.637563	-2.11211
H	-0.0103235	-2.32158	-0.0582118
H	-0.708168	-0.639088	2.01505
C	5.18658	-0.509147	-0.712146
C	5.13947	0.81949	-0.346564
N	4.09902	1.06011	0.487749
C	3.50293	-0.114785	0.639176
N	4.12098	-1.09298	-0.064204
H	5.87987	-1.06206	-1.36574
H	5.83757	1.60878	-0.669854
H	2.61045	-0.314926	1.25371
H	3.84165	-2.10359	-0.107684
