18
  This energy is -1.2631 and Call times are: 208429
C	-0.438	-1.04591	0.0252807
C	-0.349905	-0.263789	1.13924
C	0.24727	0.960951	0.710858
C	0.471384	0.819139	-0.627064
O	0.058945	-0.400394	-1.06255
H	-0.82871	-2.06604	-0.122753
H	-0.673033	-0.523285	2.16019
H	0.479213	1.83984	1.33363
H	0.911584	1.5031	-1.37115
C	5.87217	-0.0942427	-0.0472741
C	5.06607	0.637735	-0.89318
N	3.76096	0.520205	-0.547644
C	3.75742	-0.281635	0.508606
N	5.00618	-0.679162	0.849451
H	6.96435	-0.235582	-0.0208464
H	5.4028	1.24855	-1.74663
H	2.86838	-0.609917	1.0708
H	5.26531	-1.31232	1.64521
