18
  This energy is -1.484 and Call times are: 198211
C	0.0890341	0.942788	-0.624199
C	1.00056	-0.0693282	-0.695667
C	0.552003	-1.06521	0.224726
C	-0.594039	-0.573755	0.777383
O	-0.89167	0.651589	0.270471
H	0.0267737	1.90916	-1.15097
H	1.89872	-0.110487	-1.33262
H	1.03323	-2.03204	0.443271
H	-1.28043	-0.993053	1.53124
C	4.55061	-0.765083	-0.705627
C	5.75125	-0.13162	-0.947114
N	6.08859	0.68445	0.0808675
C	5.10097	0.557737	0.956755
N	4.14923	-0.305128	0.528686
H	3.97269	-1.48657	-1.3048
H	6.38015	-0.248801	-1.84467
H	5.02463	1.07372	1.92741
H	3.27259	-0.572758	1.0397
