18
  This energy is -0.8442 and Call times are: 83092
C	0.819875	0.622914	-0.475587
C	0.920467	0.127878	0.791376
C	-0.290819	-0.591256	1.02749
C	-1.02468	-0.472191	-0.116036
O	-0.361619	0.266127	-1.04461
H	1.51076	1.23494	-1.07838
H	1.76311	0.256249	1.48963
H	-0.574054	-1.13132	1.94521
H	-2.01918	-0.860772	-0.390302
C	4.76928	-0.288789	-0.152227
C	5.71759	-0.11031	-1.13712
N	6.91962	0.217941	-0.604317
C	6.71779	0.243004	0.706126
N	5.43717	-0.0556929	1.0292
H	3.70203	-0.556258	-0.206648
H	5.55598	-0.212508	-2.22261
H	7.47311	0.474096	1.47445
H	5.03053	-0.101069	1.99556
