18
  This energy is -0.9383 and Call times are: 89888
C	-0.655435	-0.169696	-0.90995
C	-1.06425	-0.482179	0.35322
C	0.0196919	-0.128802	1.21364
C	0.995199	0.36843	0.400297
O	0.59991	0.350899	-0.899876
H	-1.15769	-0.268233	-1.88631
H	-2.03203	-0.917825	0.649385
H	0.0594291	-0.235987	2.30955
H	2.00114	0.761583	0.621118
C	5.24012	0.464056	-0.925351
C	6.59481	0.505293	-0.671888
N	6.89487	-0.131555	0.486085
C	5.73075	-0.566222	0.949236
N	4.70243	-0.232337	0.133951
H	4.64064	0.867535	-1.75684
H	7.36108	0.983155	-1.30381
H	5.57438	-1.13412	1.88051
H	3.68871	-0.460493	0.280808
