18
  This energy is -1.428 and Call times are: 99097
C	-0.893369	-0.331244	0.615281
C	-0.613216	0.983321	0.383319
C	0.56945	0.995657	-0.417473
C	0.907604	-0.31246	-0.604172
O	0.0251358	-1.13657	0.0196147
H	-1.7056	-0.816959	1.18063
H	-1.1823	1.8567	0.740313
H	1.09965	1.8805	-0.804808
H	1.74094	-0.781011	-1.15305
C	4.19863	0.827544	-0.734281
C	4.13499	0.841905	0.642994
N	4.69513	-0.274044	1.16969
C	5.10472	-0.978032	0.123139
N	4.8284	-0.356267	-1.04761
H	3.8519	1.55181	-1.48844
H	3.69493	1.63749	1.26609
H	5.61267	-1.9553	0.15738
H	5.05141	-0.708821	-2.01053
