18
  This energy is -0.7704 and Call times are: 130451
C	-0.853375	0.0513439	0.745329
C	0.333553	0.691831	0.948683
C	1.13967	0.392735	-0.191861
C	0.37418	-0.404122	-0.991501
O	-0.846098	-0.622888	-0.434658
H	-1.76938	-0.00206425	1.35634
H	0.613358	1.31263	1.81495
H	2.16875	0.735524	-0.385723
H	0.579799	-0.873693	-1.96745
C	6.57621	0.588539	0.901076
C	7.24156	-0.18622	-0.0253161
N	6.38029	-0.718127	-0.926312
C	5.18517	-0.275034	-0.560265
N	5.25033	0.51675	0.536285
H	6.94027	1.16661	1.76527
H	8.32763	-0.370931	-0.0597249
H	4.22908	-0.499703	-1.05991
H	4.44438	0.986461	1.01699
