18
  This energy is -0.7207 and Call times are: 187526
C	0.679314	-0.82199	0.38635
C	-0.275997	-1.04863	-0.560428
C	-0.914	0.210056	-0.781261
C	-0.292243	1.09475	0.0500626
O	0.683439	0.481612	0.770558
H	1.41008	-1.49548	0.863465
H	-0.508117	-2.00613	-1.05381
H	-1.73914	0.422508	-1.47991
H	-0.449192	2.17261	0.219911
C	4.58285	-0.312272	0.668147
C	5.36654	-1.14461	-0.102702
N	6.3367	-0.447777	-0.742804
C	6.15556	0.812059	-0.370473
N	5.11037	0.945708	0.479997
H	3.71602	-0.519228	1.31568
H	5.24932	-2.23544	-0.208462
H	6.75953	1.67631	-0.690668
H	4.76723	1.83768	0.913472
