18
  This energy is -0.5906 and Call times are: 98758
C	-0.386097	0.634083	-0.857478
C	-0.942042	0.672559	0.387439
C	-0.192598	-0.250396	1.17902
C	0.755162	-0.7714	0.347954
O	0.651647	-0.242457	-0.89965
H	-0.633923	1.1744	-1.78586
H	-1.79438	1.28904	0.715417
H	-0.348336	-0.4918	2.24277
H	1.55011	-1.51528	0.520984
C	5.71485	-0.86498	0.745382
C	4.8508	-0.128275	-0.0368023
N	5.52178	0.787504	-0.77683
C	6.79725	0.619562	-0.454962
N	6.96562	-0.365112	0.459183
H	5.53422	-1.68232	1.46153
H	3.75525	-0.241126	-0.0804301
H	7.64876	1.19061	-0.858772
H	7.87558	-0.686529	0.871387
