18
  This energy is -0.7749 and Call times are: 99928
C	0.186808	0.200388	-1.10061
C	-0.950799	0.606397	-0.467067
C	-0.818273	0.176078	0.888433
C	0.38862	-0.454905	0.963554
O	1.01601	-0.449391	-0.241999
H	0.521134	0.311107	-2.14523
H	-1.79826	1.15398	-0.909849
H	-1.54255	0.323684	1.70558
H	0.907343	-0.942933	1.80498
C	5.28064	-0.127396	-1.0484
C	4.68618	-0.24877	0.18976
N	5.58175	-0.0372418	1.18461
C	6.72744	0.214402	0.565985
N	6.59796	0.171755	-0.781237
H	4.87308	-0.229332	-2.06675
H	3.62713	-0.48518	0.383064
H	7.69156	0.436249	1.05126
H	7.35654	0.335396	-1.48766
