18
  This energy is -0.8658 and Call times are: 194425
C	0.269193	0.326207	-1.05239
C	1.01603	0.675581	0.0341404
C	0.367054	0.0847482	1.16102
C	-0.719069	-0.57352	0.663638
O	-0.794331	-0.436673	-0.686406
H	0.387222	0.553934	-2.12452
H	1.93204	1.28793	0.0413491
H	0.679848	0.14792	2.21566
H	-1.50402	-1.16788	1.15946
C	5.04286	-1.02496	0.354357
C	4.68358	0.234485	0.785463
N	5.41719	1.19077	0.165912
C	6.2285	0.527102	-0.646457
N	6.04151	-0.811815	-0.569473
H	4.67096	-2.02448	0.630394
H	3.90816	0.470285	1.53244
H	6.97887	0.972196	-1.31956
H	6.55873	-1.54739	-1.11046
