18
  This energy is -0.3704 and Call times are: 182131
C	-0.689877	-0.627981	0.645066
C	-1.1291	0.0362779	-0.462281
C	0.0149417	0.703112	-0.997646
C	1.05228	0.387479	-0.170194
O	0.639884	-0.424646	0.838465
H	-1.21716	-1.27017	1.36951
H	-2.15573	0.0548264	-0.86201
H	0.0516912	1.34148	-1.89499
H	2.11682	0.673129	-0.190659
C	6.7272	1.1481	-0.225362
C	5.57769	0.399682	-0.365524
N	5.79019	-0.892339	-0.0161906
C	7.06668	-0.945257	0.339337
N	7.67517	0.259536	0.230695
H	6.93092	2.21455	-0.411666
H	4.5988	0.768822	-0.712455
H	7.60657	-1.84069	0.687114
H	8.67802	0.475595	0.451756
