18
  This energy is -0.6939 and Call times are: 191530
C	0.634878	0.249094	0.906247
C	-0.700124	0.523318	0.85197
C	-1.14074	0.0695342	-0.428676
C	-0.0360981	-0.441932	-1.04393
O	1.05724	-0.340487	-0.243106
H	1.38525	0.421855	1.69514
H	-1.31311	0.997574	1.63518
H	-2.16328	0.122002	-0.835813
H	0.101198	-0.900566	-2.03693
C	4.79317	-0.2366	0.322546
C	5.94373	-0.782921	0.850649
N	7.04625	-0.283067	0.241469
C	6.58143	0.570105	-0.661121
N	5.22887	0.633817	-0.651481
H	3.73062	-0.40017	0.562915
H	5.99807	-1.5288	1.66031
H	7.1876	1.1744	-1.3551
H	4.6268	1.23226	-1.26845
