18
  This energy is -0.4855 and Call times are: 199662
C	1.09671	0.20406	0.204922
C	0.462092	0.672432	-0.907851
C	-0.88743	0.214895	-0.810047
C	-0.958357	-0.492681	0.353859
O	0.24428	-0.50961	0.986623
H	2.13812	0.308433	0.551066
H	0.900332	1.27925	-1.71644
H	-1.70356	0.396431	-1.52773
H	-1.79467	-1.02493	0.836088
C	5.50023	0.307193	0.539618
C	6.00349	-0.968136	0.39328
N	7.17809	-0.955363	-0.282481
C	7.40267	0.323028	-0.554333
N	6.41965	1.12418	-0.0795545
H	4.58347	0.678796	1.02438
H	5.54008	-1.89726	0.763189
H	8.27138	0.727619	-1.09828
H	6.36777	2.16869	-0.166542
