18
  This energy is -2.8542 and Call times are: 172587
C	0.0403369	0.772234	-0.829716
C	0.2188	-0.559834	-1.06236
C	0.0981278	-1.19848	0.209526
C	-0.143424	-0.200305	1.10712
O	-0.182018	1.00983	0.489797
H	0.0478771	1.64047	-1.50895
H	0.415671	-1.04411	-2.03231
H	0.182835	-2.27638	0.421778
H	-0.303787	-0.220682	2.19758
C	3.77705	-0.514023	0.856043
C	5.14406	-0.3378	0.81899
N	5.52469	0.293629	-0.318082
C	4.3981	0.508311	-0.983904
N	3.31643	0.0396517	-0.317609
H	3.12131	-0.978748	1.60941
H	5.86252	-0.654954	1.59234
H	4.30817	1.0044	-1.96372
H	2.31727	0.0887148	-0.634663
