18
  This energy is -0.5501 and Call times are: 75797
C	0.472013	-0.010249	-1.03126
C	-0.731615	-0.597579	-0.772999
C	-0.984893	-0.376134	0.61514
C	0.0863172	0.326969	1.08261
O	0.985824	0.559223	0.0906621
H	1.06207	0.0704544	-1.95893
H	-1.37642	-1.13304	-1.48826
H	-1.86512	-0.705769	1.19015
H	0.323962	0.715791	2.0864
C	4.82743	-0.771872	0.679319
C	5.57784	-1.05408	-0.442463
N	6.09642	0.076429	-0.98055
C	5.66935	1.05625	-0.195568
N	4.90054	0.596026	0.819672
H	4.26532	-1.42584	1.3648
H	5.75436	-2.05316	-0.8732
H	5.88992	2.12884	-0.318565
H	4.44663	1.17158	1.57065
