18
  This energy is -1.445 and Call times are: 33642
C	-0.267931	-0.30155	-1.06004
C	-0.119929	-1.21339	-0.0565334
C	0.212244	-0.459924	1.11055
C	0.237904	0.845829	0.717199
O	-0.0530185	0.961016	-0.605339
H	-0.521282	-0.422299	-2.1261
H	-0.233296	-2.30689	-0.130709
H	0.40763	-0.853086	2.12116
H	0.44674	1.77345	1.27501
C	3.74918	-0.590016	0.559528
C	4.9638	-0.196971	1.08043
N	5.70122	0.464199	0.155451
C	4.94693	0.48126	-0.935137
N	3.76015	-0.141647	-0.742406
H	2.9059	-1.13875	1.00821
H	5.32127	-0.378615	2.10711
H	5.21504	0.936379	-1.9022
H	2.9943	-0.260418	-1.44995
