18
  This energy is -0.6586 and Call times are: 68686
C	-0.454687	1.02331	-0.180292
C	0.298349	0.742489	0.92173
C	0.685392	-0.6263	0.792385
C	0.134705	-1.0611	-0.377259
O	-0.564981	-0.0667296	-0.98445
H	-0.961134	1.94756	-0.503582
H	0.555475	1.43024	1.7433
H	1.30227	-1.21083	1.49373
H	0.166791	-2.04138	-0.880519
C	5.76377	0.188338	1.15998
C	4.68375	-0.306561	0.460147
N	4.95824	-0.394426	-0.86403
C	6.20382	0.0442945	-0.985218
N	6.73322	0.407661	0.206959
H	5.90633	0.393139	2.23295
H	3.71138	-0.6018	0.886964
H	6.77632	0.12038	-1.92367
H	7.69831	0.784639	0.373557
