18
  This energy is -2.2819 and Call times are: 82297
C	-0.242791	1.02845	-0.412007
C	-0.42755	-0.111472	-1.13783
C	-0.0142979	-1.18522	-0.291428
C	0.386512	-0.60667	0.876904
O	0.253762	0.744718	0.820853
H	-0.423761	2.08809	-0.656256
H	-0.815887	-0.188477	-2.16611
H	-0.0185204	-2.26027	-0.532982
H	0.780541	-1.04104	1.81034
C	3.24164	0.668557	-0.602502
C	4.2546	1.10605	0.224325
N	4.93511	0.0624834	0.757618
C	4.34655	-1.01829	0.263511
N	3.31977	-0.705651	-0.562059
H	2.49559	1.21951	-1.19698
H	4.50662	2.15598	0.445627
H	4.62727	-2.063	0.473326
H	2.70107	-1.38135	-1.07383
