18
  This energy is -0.8674 and Call times are: 61237
C	-0.482506	0.783887	-0.662654
C	-0.164648	-0.462002	-1.11774
C	0.41548	-1.1477	-0.00715543
C	0.400917	-0.260298	1.02855
O	-0.144058	0.924483	0.646047
H	-0.946577	1.64903	-1.16407
H	-0.322833	-0.858399	-2.13358
H	0.796519	-2.18145	0.00927524
H	0.744037	-0.349238	2.07239
C	6.33641	-0.182846	-0.245411
C	5.63358	0.992309	-0.407204
N	4.34205	0.845975	-0.0237373
C	4.24402	-0.415165	0.374434
N	5.41965	-1.07732	0.260206
H	7.38897	-0.437411	-0.447555
H	6.03526	1.94314	-0.793758
H	3.33496	-0.905284	0.758639
H	5.59867	-2.08089	0.509342
