18
  This energy is -1.5726 and Call times are: 142557
C	-0.391789	0.251353	1.03427
C	-0.0337903	1.21262	0.135287
C	0.402101	0.51375	-1.03163
C	0.271989	-0.81289	-0.74272
O	-0.211528	-0.991488	0.514788
H	-0.783839	0.321327	2.06221
H	-0.0727552	2.30431	0.279429
H	0.768294	0.955853	-1.97213
H	0.486439	-1.71532	-1.33844
C	4.31108	-1.16998	-0.0625394
C	3.73855	-0.341592	-1.00442
N	3.78031	0.953142	-0.606387
C	4.37647	0.92807	0.577922
N	4.71576	-0.328945	0.949924
H	4.45438	-2.26203	-0.0417922
H	3.2961	-0.654944	-1.96405
H	4.58951	1.8012	1.2155
H	5.19567	-0.609427	1.84002
