18
  This energy is -1.2842 and Call times are: 54834
C	0.891693	0.695936	0.0834169
C	-0.205694	1.00152	-0.666741
C	-1.09828	-0.104173	-0.522316
C	-0.467547	-0.987815	0.303349
O	0.748899	-0.515362	0.682899
H	1.82706	1.24881	0.269623
H	-0.370128	1.914	-1.26207
H	-2.09237	-0.219413	-0.983408
H	-0.774131	-1.97339	0.690508
C	4.49728	-0.954423	0.680895
C	4.51318	0.36035	1.09594
N	4.6458	1.20347	0.043297
C	4.71193	0.414752	-1.02074
N	4.62687	-0.895261	-0.688737
H	4.40596	-1.89654	1.24446
H	4.43133	0.715693	2.13608
H	4.82264	0.744125	-2.06644
H	4.6544	-1.71054	-1.3489
