18
  This energy is -1.8584 and Call times are: 47951
C	-0.692486	0.815062	0.377542
C	-0.3243	-0.246629	1.1506
C	0.539268	-1.04188	0.337003
C	0.622563	-0.395949	-0.861418
O	-0.12346	0.740014	-0.854362
H	-1.3451	1.67898	0.584903
H	-0.630146	-0.449429	2.18956
H	1.0361	-1.98385	0.619719
H	1.17152	-0.638543	-1.7861
C	4.53845	1.0826	0.00629734
C	5.83214	0.732684	0.330458
N	6.0205	-0.604271	0.213914
C	4.84813	-1.08195	-0.181046
N	3.92163	-0.104342	-0.320632
H	4.03007	2.05967	-0.0141899
H	6.63298	1.42095	0.646342
H	4.61321	-2.13949	-0.382652
H	2.92357	-0.227162	-0.620728
