18
  This energy is -0.7939 and Call times are: 42692
C	0.507273	-0.275965	-0.976175
C	-0.0947752	0.932422	-0.781981
C	-0.610387	0.902851	0.549705
C	-0.277904	-0.320996	1.05173
O	0.404989	-1.05403	0.133401
H	1.036	-0.697878	-1.84663
H	-0.168399	1.76144	-1.50406
H	-1.16327	1.70439	1.06542
H	-0.4666	-0.784054	2.03418
C	5.12933	1.05007	0.503307
C	4.17648	0.257112	-0.100391
N	4.72337	-0.888433	-0.574894
C	6.01059	-0.806452	-0.266737
N	6.30539	0.343768	0.384167
H	5.05616	2.03417	0.992935
H	3.1042	0.49105	-0.202074
H	6.78131	-1.56045	-0.494139
H	7.2499	0.640908	0.731832
