18
  This energy is -1.0568 and Call times are: 79419
C	0.269605	0.209896	1.08151
C	0.820912	-0.820419	0.378026
C	0.240175	-0.758774	-0.925455
C	-0.614745	0.30377	-0.903445
O	-0.609403	0.906962	0.314398
H	0.417795	0.547754	2.12033
H	1.56217	-1.55059	0.740633
H	0.441643	-1.43165	-1.77442
H	-1.27459	0.727401	-1.67829
C	5.42906	0.547728	-0.89732
C	5.00913	1.11545	0.286949
N	4.43877	0.190704	1.09692
C	4.50462	-0.946384	0.41771
N	5.09323	-0.783462	-0.790837
H	5.92652	0.982311	-1.77892
H	5.10748	2.17575	0.571466
H	4.13696	-1.92769	0.758441
H	5.26167	-1.52914	-1.50976
