18
  This energy is -2.9709 and Call times are: 197460
C	-0.200992	-1.10773	0.137595
C	0.327901	-0.332847	1.12764
C	0.429992	0.983111	0.581797
C	-0.0455282	0.89622	-0.693626
O	-0.435273	-0.37346	-0.981766
H	-0.454745	-2.18002	0.105194
H	0.617133	-0.655569	2.1407
H	0.814116	1.88356	1.0875
H	-0.157232	1.65495	-1.48552
C	4.19323	0.865192	-0.736495
C	5.47209	0.514744	-0.358556
N	5.45758	-0.530113	0.504331
C	4.17459	-0.826738	0.661107
N	3.37218	-0.0139267	-0.0662595
H	3.82171	1.65173	-1.41242
H	6.40499	0.997101	-0.693036
H	3.76739	-1.62948	1.29673
H	2.32425	-0.0471013	-0.111096
