18
  This energy is -0.6817 and Call times are: 99579
C	-1.0111	0.502491	-0.107595
C	-0.322855	0.490828	1.06993
C	0.885011	-0.225747	0.809742
C	0.828248	-0.588715	-0.503805
O	-0.322857	-0.152241	-1.07953
H	-1.98695	0.937102	-0.379774
H	-0.634483	0.941609	2.02584
H	1.69609	-0.441017	1.52382
H	1.53303	-1.15115	-1.138
C	6.8744	0.625946	-0.627361
C	7.15596	-0.243262	0.405279
N	6.02227	-0.793904	0.903325
C	5.04113	-0.268296	0.1824
N	5.50356	0.593946	-0.753701
H	7.53065	1.24438	-1.26015
H	8.15681	-0.482937	0.799876
H	3.96597	-0.480159	0.297991
H	4.92757	1.135	-1.44417
