18
  This energy is -1.2791 and Call times are: 126911
C	0.328255	0.714765	0.817166
C	-0.969724	0.617982	0.409417
C	-0.98361	-0.373076	-0.619043
C	0.307108	-0.794426	-0.748981
O	1.12184	-0.140655	0.120392
H	0.808866	1.3452	1.58321
H	-1.83099	1.18737	0.794269
H	-1.85779	-0.724871	-1.19014
H	0.768397	-1.54295	-1.41394
C	5.54675	-0.673335	-0.790967
C	5.79532	-0.982453	0.529564
N	6.45529	0.024721	1.15129
C	6.61555	0.955123	0.220006
N	6.08489	0.581685	-0.968498
H	5.04184	-1.23877	-1.59027
H	5.51028	-1.91416	1.04485
H	7.1142	1.9285	0.3546
H	6.08364	1.14152	-1.8561
