18
  This energy is -0.8288 and Call times are: 529
C	-0.95254	-0.45086	0.419277
C	-0.333927	0.618033	0.998206
C	0.814462	0.888403	0.193084
C	0.796236	-0.0391393	-0.806769
O	-0.27598	-0.865176	-0.684182
H	-1.86733	-1.00216	0.692181
H	-0.65417	1.16158	1.90159
H	1.56164	1.68325	0.348111
H	1.47931	-0.214246	-1.65411
C	4.96874	-1.01604	0.265537
C	4.68362	-0.186484	-0.798269
N	5.49203	0.901169	-0.800095
C	6.27568	0.746947	0.258553
N	5.99939	-0.393747	0.933887
H	4.52592	-1.97325	0.583655
H	3.90909	-0.353278	-1.56451
H	7.06837	1.43919	0.585161
H	6.47894	-0.738435	1.80135
