18
  This energy is -1.3351 and Call times are: 187654
C	-0.331345	-1.01618	0.379473
C	-0.498606	-0.630983	-0.918227
C	0.0354914	0.690839	-1.00567
C	0.481983	0.996706	0.246315
O	0.265976	-0.0343765	1.10493
H	-0.59126	-1.9502	0.904159
H	-0.952554	-1.2187	-1.73224
H	0.0779823	1.33174	-1.90095
H	0.965212	1.90187	0.649334
C	5.03085	0.270078	0.956125
C	5.01994	-0.934317	0.284963
N	4.17652	-0.895361	-0.775053
C	3.66614	0.328546	-0.761547
N	4.14985	1.06994	0.263121
H	5.58473	0.603455	1.8481
H	5.60553	-1.83069	0.546593
H	2.93424	0.734078	-1.47856
H	3.90116	2.06457	0.487005
