18
  This energy is -1.1712 and Call times are: 99193
C	-0.925861	-0.381764	0.532389
C	-0.609504	0.94384	0.477031
C	0.607018	1.02475	-0.267042
C	0.92667	-0.258559	-0.600692
O	0.00142758	-1.1306	-0.120601
H	-1.7716	-0.912678	0.999413
H	-1.17598	1.78074	0.916119
H	1.17129	1.93685	-0.519564
H	1.7736	-0.676901	-1.16897
C	4.3826	0.714079	-0.702849
C	4.8114	0.983323	0.579642
N	5.49742	-0.0652629	1.09574
C	5.49422	-0.981536	0.137062
N	4.8346	-0.559413	-0.967612
H	3.80699	1.31843	-1.42185
H	4.63806	1.91541	1.1418
H	5.95997	-1.97871	0.191305
H	4.69425	-1.09936	-1.85644
