18
  This energy is -0.6743 and Call times are: 102343
C	0.794315	0.716093	0.377723
C	0.878025	-0.632367	0.564864
C	-0.29066	-1.18473	-0.042747
C	-0.985368	-0.125046	-0.547552
O	-0.337336	1.04359	-0.299862
H	1.46576	1.53847	0.674556
H	1.68209	-1.18286	1.07919
H	-0.572878	-2.24864	-0.0931926
H	-1.94004	-0.0712199	-1.09615
C	5.00425	-0.398147	0.160976
C	5.46489	0.878495	0.404176
N	6.78257	0.98741	0.106938
C	7.13805	-0.217083	-0.319042
N	6.10116	-1.08786	-0.305161
H	4.00678	-0.849584	0.282573
H	4.87005	1.72295	0.788792
H	8.14464	-0.515997	-0.653192
H	6.12775	-2.09628	-0.594385
