18
  This energy is -0.7309 and Call times are: 48047
C	-0.693406	-0.501175	0.744589
C	-0.0971155	0.699598	0.9955
C	0.687478	0.995706	-0.160723
C	0.501379	-0.0502579	-1.01612
O	-0.339057	-0.973646	-0.479429
H	-1.38159	-1.11592	1.34771
H	-0.199497	1.31508	1.90368
H	1.31437	1.88642	-0.327242
H	0.904884	-0.252994	-2.02177
C	6.76449	-0.0141525	0.169883
C	5.95988	-1.09094	-0.137151
N	4.66459	-0.712894	-0.262879
C	4.66563	0.59346	-0.03471
N	5.90789	1.06227	0.230982
H	7.84982	0.0598336	0.343434
H	6.29078	-2.13385	-0.270207
H	3.78468	1.25523	-0.0495897
H	6.1688	2.05635	0.443107
