18
  This energy is -1.5439 and Call times are: 126846
C	1.01682	-0.418329	-0.278333
C	0.856211	0.842672	0.216089
C	-0.545596	0.998761	0.441236
C	-1.11786	-0.180635	0.064524
O	-0.178392	-1.05757	-0.377515
H	1.91717	-0.970891	-0.59345
H	1.64568	1.58814	0.403453
H	-1.0591	1.88932	0.837874
H	-2.16799	-0.516015	0.0626775
C	4.64709	0.852974	-0.809153
C	4.79277	-0.49858	-1.03985
N	4.81524	-1.19322	0.123538
C	4.684	-0.276093	1.07237
N	4.57895	0.973294	0.560909
H	4.58901	1.70912	-1.49994
H	4.88207	-0.984938	-2.02491
H	4.65864	-0.464679	2.15773
H	4.46694	1.86394	1.10447
