18
  This energy is -1.4548 and Call times are: 44008
C	0.00778038	1.12458	0.147173
C	-0.847062	0.507029	-0.717841
C	-0.557308	-0.888476	-0.624426
C	0.44902	-1.00051	0.289427
O	0.806557	0.219072	0.77089
H	0.144792	2.1874	0.405805
H	-1.60558	0.986137	-1.35753
H	-1.0465	-1.70648	-1.17728
H	0.989197	-1.87939	0.678038
C	3.95804	0.979227	-0.118743
C	3.96033	0.116625	0.956923
N	4.82153	-0.910577	0.75769
C	5.3515	-0.686076	-0.437031
N	4.8632	0.441388	-1.00622
H	3.39513	1.90681	-0.309133
H	3.356	0.217042	1.87319
H	6.10156	-1.31542	-0.942571
H	5.12436	0.831501	-1.94476
