18
  This energy is -1.3699 and Call times are: 3221
C	0.647008	0.18485	0.913024
C	1.12461	0.311024	-0.358334
C	0.0285422	0.00149437	-1.22028
C	-1.02209	-0.286504	-0.399548
O	-0.662278	-0.179485	0.906626
H	1.13152	0.324842	1.89328
H	2.14627	0.593706	-0.65901
H	0.0314105	-0.00353017	-2.32212
H	-2.06266	-0.577192	-0.618597
C	6.093	-0.622078	0.950718
C	6.52912	-1.1202	-0.25875
N	6.79592	-0.118831	-1.13201
C	6.52633	0.996278	-0.466822
N	6.09907	0.745923	0.79348
H	5.7889	-1.12742	1.88114
H	6.65606	-2.1842	-0.51691
H	6.62436	2.02291	-0.854956
H	5.8247	1.45821	1.51363
