18
  This energy is -0.8465 and Call times are: 17913
C	1.04972	-0.416452	-0.10516
C	0.0988821	-1.01846	0.665471
C	-1.07194	-0.209265	0.545023
C	-0.733213	0.815795	-0.288578
O	0.558844	0.705106	-0.69521
H	2.09886	-0.683404	-0.313215
H	0.21076	-1.93992	1.25918
H	-2.04833	-0.378583	1.02678
H	-1.31315	1.67476	-0.664225
C	5.96342	-0.427985	0.872812
C	5.5382	-1.10392	-0.251223
N	4.7892	-0.303868	-1.04837
C	4.74991	0.863949	-0.421242
N	5.44286	0.840109	0.741876
H	6.57907	-0.748922	1.72809
H	5.75843	-2.15454	-0.501304
H	4.22815	1.76993	-0.769377
H	5.56106	1.63599	1.41557
