18
  This energy is -1.3454 and Call times are: 147034
C	-0.240974	-1.04246	-0.376304
C	-0.463407	0.0745499	-1.12676
C	-0.0395003	1.17647	-0.32289
C	0.404555	0.635544	0.847833
O	0.28883	-0.718482	0.832562
H	-0.414635	-2.11069	-0.586045
H	-0.883822	0.118173	-2.14433
H	-0.0658972	2.24431	-0.593268
H	0.820718	1.10053	1.7566
C	4.48353	-1.12889	-0.277515
C	4.95372	-0.0234019	-0.954246
N	4.55051	1.12377	-0.35597
C	3.83291	0.731443	0.687944
N	3.76282	-0.617796	0.778677
H	4.60669	-2.20716	-0.466487
H	5.57667	-0.0329934	-1.86347
H	3.33634	1.39044	1.41828
H	3.25602	-1.16945	1.51358
