18
  This energy is -0.8766 and Call times are: 140663
C	-0.426278	-0.0205317	1.05084
C	0.89747	0.196234	0.803697
C	1.04287	0.149377	-0.616437
C	-0.204859	-0.0918854	-1.11175
O	-1.11438	-0.198491	-0.107547
H	-0.995251	-0.0712601	1.99368
H	1.69185	0.371539	1.54689
H	1.9724	0.281128	-1.19325
H	-0.571521	-0.207811	-2.14489
C	5.9617	-0.882702	-0.761434
C	4.79521	-0.564964	-0.0984926
N	4.96705	0.514312	0.702849
C	6.23532	0.864793	0.537666
N	6.87756	0.0532572	-0.335558
H	6.19704	-1.68196	-1.48209
H	3.83269	-1.09514	-0.184041
H	6.74499	1.70763	1.03171
H	7.88184	0.123633	-0.63174
