18
  This energy is -1.1184 and Call times are: 7711
C	-0.420424	-1.05288	-0.0329186
C	0.363697	-0.611198	0.991993
C	0.690657	0.743383	0.678426
C	0.0774734	1.00989	-0.51042
O	-0.605537	-0.0759165	-0.959354
H	-0.902096	-2.02714	-0.217509
H	0.680117	-1.18202	1.87977
H	1.31098	1.43164	1.27474
H	0.0507339	1.9204	-1.13131
C	5.99034	-0.129468	-0.622538
C	5.439	1.05489	-0.181567
N	4.29309	0.833816	0.50729
C	4.13414	-0.482685	0.493718
N	5.13142	-1.10842	-0.175219
H	6.9027	-0.33798	-1.20363
H	5.84751	2.06495	-0.348115
H	3.30528	-1.0408	0.958188
H	5.23131	-2.14233	-0.324638
