18
  This energy is -1.4376 and Call times are: 81718
C	-0.486095	0.991895	0.257404
C	0.752223	0.645488	0.712316
C	1.01349	-0.655164	0.183011
C	-0.0882391	-0.988748	-0.548627
O	-1.01408	0.00555714	-0.514204
H	-1.09357	1.89909	0.409778
H	1.41518	1.24566	1.35604
H	1.91928	-1.26394	0.334748
H	-0.332192	-1.89128	-1.13273
C	5.74465	1.02769	0.143309
C	5.69557	0.207981	-0.96431
N	6.45762	-0.898591	-0.787408
C	6.97747	-0.765877	0.425344
N	6.57778	0.379265	1.02741
H	5.26177	1.99431	0.357798
H	5.12396	0.395196	-1.88792
H	7.65693	-1.47765	0.921275
H	6.85056	0.710134	1.98521
