18
  This energy is -0.86 and Call times are: 107716
C	1.04267	0.177541	-0.409541
C	0.730767	0.372725	0.903849
C	-0.65485	0.0493866	1.02889
C	-1.06736	-0.314842	-0.219123
O	-0.0436007	-0.242427	-1.11001
H	1.98834	0.300717	-0.96252
H	1.40845	0.71051	1.70431
H	-1.26509	0.0866305	1.94558
H	-2.04964	-0.64156	-0.598116
C	4.83796	0.640833	0.221157
C	5.32618	0.281433	-1.01724
N	6.45514	-0.459188	-0.901258
C	6.66649	-0.55887	0.404123
N	5.71881	0.087626	1.12352
H	3.95548	1.23142	0.514378
H	4.88405	0.543258	-1.99234
H	7.50004	-1.09363	0.88729
H	5.66525	0.154677	2.16942
