18
  This energy is -0.8407 and Call times are: 211094
C	0.761846	0.615447	0.572029
C	0.906232	0.32122	-0.751964
C	-0.237243	-0.457892	-1.10632
C	-0.979448	-0.570992	0.0324159
O	-0.384213	0.0784936	1.06725
H	1.39607	1.19043	1.26659
H	1.73484	0.622596	-1.41278
H	-0.471486	-0.880696	-2.0965
H	-1.93626	-1.08007	0.233925
C	6.8679	-0.0688298	-0.127903
C	6.1761	0.774554	0.715456
N	4.83861	0.585754	0.605984
C	4.70119	-0.371117	-0.301837
N	5.89581	-0.798969	-0.77452
H	7.94718	-0.196831	-0.307686
H	6.61808	1.51589	1.40096
H	3.74866	-0.7959	-0.657458
H	6.05179	-1.54479	-1.4961
