18
  This energy is -0.7509 and Call times are: 90208
C	0.762676	0.219616	-0.810243
C	-0.540513	-0.0676197	-1.09232
C	-1.17562	-0.281487	0.169037
C	-0.204469	-0.106062	1.11056
O	0.985608	0.200499	0.530259
H	1.61828	0.452574	-1.46517
H	-1.0077	-0.123309	-2.08868
H	-2.23313	-0.535965	0.3451
H	-0.232551	-0.17068	2.21069
C	4.67177	-0.446079	-0.358955
C	5.66367	-1.10701	0.334191
N	6.71355	-0.287671	0.585044
C	6.37427	0.877131	0.0495563
N	5.15203	0.832878	-0.531611
H	3.69085	-0.784079	-0.729223
H	5.64057	-2.16039	0.657781
H	6.9835	1.7953	0.054394
H	4.66334	1.62242	-1.02057
