18
  This energy is -1.7197 and Call times are: 66289
C	0.696581	0.82152	-0.355361
C	0.562438	0.496939	0.962602
C	-0.389389	-0.567041	1.00833
C	-0.752869	-0.798717	-0.285726
O	-0.0993859	0.0402608	-1.13195
H	1.31705	1.57863	-0.862367
H	1.08167	0.960279	1.81689
H	-0.754874	-1.09266	1.90512
H	-1.45678	-1.52203	-0.729106
C	3.96833	-0.621883	-0.942523
C	4.44362	-1.11995	0.25212
N	4.73048	-0.118859	1.11932
C	4.43427	0.996018	0.465155
N	3.97084	0.745786	-0.782324
H	3.63946	-1.12706	-1.86458
H	4.5847	-2.18371	0.503848
H	4.53771	2.02239	0.852581
H	3.67064	1.45794	-1.49223
