18
  This energy is -0.7916 and Call times are: 31215
C	0.889504	-0.56851	-0.414704
C	-0.331491	-1.15029	-0.238413
C	-1.17743	-0.130131	0.294306
C	-0.398697	0.984992	0.396524
O	0.866602	0.73537	-0.0321006
H	1.84183	-0.969524	-0.798793
H	-0.608647	-2.1932	-0.461162
H	-2.24088	-0.224814	0.566715
H	-0.623414	2.00343	0.753661
C	6.0276	0.621257	0.685372
C	5.49206	-0.619749	0.957864
N	4.69367	-1.04012	-0.0532591
C	4.73375	-0.0636162	-0.949616
N	5.52455	0.960649	-0.550729
H	6.70837	1.26541	1.2643
H	5.66746	-1.21933	1.86593
H	4.20297	-0.0472114	-1.91514
H	5.71768	1.84486	-1.08189
