18
  This energy is -0.5015 and Call times are: 188072
C	-0.484067	0.929205	0.434348
C	0.84053	0.877838	0.113133
C	1.06851	-0.43676	-0.396743
C	-0.136889	-1.07267	-0.342097
O	-1.0964	-0.25332	0.162883
H	-1.10295	1.73743	0.857448
H	1.58262	1.68473	0.22411
H	2.02252	-0.851775	-0.759693
H	-0.438552	-2.09358	-0.62844
C	5.90188	0.822456	0.470415
C	5.505	-0.334489	-0.166067
N	6.57472	-1.05304	-0.585474
C	7.6312	-0.344566	-0.210606
N	7.27803	0.794985	0.429931
H	5.32176	1.63623	0.933841
H	4.46597	-0.663612	-0.330172
H	8.68617	-0.614038	-0.379863
H	7.92858	1.51954	0.821175
