18
  This energy is -1.125 and Call times are: 77362
C	-0.180913	0.0562472	-1.11826
C	-0.882898	0.812017	-0.225847
C	-0.376325	0.465308	1.06384
C	0.590502	-0.471724	0.845686
O	0.723197	-0.733593	-0.481276
H	-0.229738	-0.0105109	-2.21754
H	-1.67771	1.54057	-0.452966
H	-0.700278	0.871598	2.03548
H	1.24652	-1.02089	1.54088
C	4.76474	0.904877	-0.658223
C	4.43726	-0.359924	-1.09888
N	4.05672	-1.15318	-0.0681399
C	4.14776	-0.383428	1.00788
N	4.57047	0.866721	0.704491
H	5.11073	1.79956	-1.19986
H	4.46876	-0.714299	-2.14209
H	3.91705	-0.684749	2.04238
H	4.72144	1.65646	1.37886
