18
  This energy is -1.4344 and Call times are: 26296
C	-0.234983	1.10912	0.0323385
C	1.04238	0.634524	-0.0266104
C	0.929753	-0.789125	-0.0522398
C	-0.406495	-1.05883	-0.00669067
O	-1.13264	0.0887905	0.045285
H	-0.63211	2.13682	0.0691798
H	1.9708	1.22748	-0.0497258
H	1.75348	-1.51944	-0.0991774
H	-0.960334	-2.01199	-0.00551021
C	5.09552	1.13894	0.0240311
C	4.73501	0.400772	-1.08335
N	4.45842	-0.88237	-0.746368
C	4.64662	-0.94001	0.565074
N	5.0315	0.253268	1.07649
H	5.38349	2.19655	0.133943
H	4.66952	0.771059	-2.11942
H	4.51673	-1.83086	1.20048
H	5.24118	0.463677	2.08298
