18
  This energy is -1.3832 and Call times are: 42424
C	0.969656	0.222224	-0.544778
C	0.827728	0.407836	0.799014
C	-0.513007	0.0237819	1.10732
C	-1.07203	-0.362617	-0.0752949
O	-0.180751	-0.247887	-1.09484
H	1.82653	0.385348	-1.21888
H	1.59064	0.778061	1.50258
H	-0.996301	0.0370315	2.09744
H	-2.08066	-0.733867	-0.320427
C	5.16161	0.943143	0.603996
C	4.44452	-0.127984	1.0935
N	4.19808	-1.0372	0.119279
C	4.76016	-0.532053	-0.970455
N	5.35401	0.660888	-0.729985
H	5.53613	1.85583	1.09418
H	4.10055	-0.261031	2.13216
H	4.76656	-0.994214	-1.97075
H	5.86385	1.25718	-1.42694
