18
  This energy is -0.966 and Call times are: 38286
C	0.418766	-1.0469	0.122607
C	-0.778226	-0.80555	-0.485121
C	-0.957474	0.610973	-0.447039
C	0.145806	1.11019	0.180598
O	0.996846	0.111749	0.535358
H	0.961947	-1.98547	0.320857
H	-1.46597	-1.55031	-0.91691
H	-1.81182	1.18286	-0.843431
H	0.439582	2.14258	0.431837
C	5.43756	0.344945	-0.927159
C	5.22985	1.04662	0.241455
N	4.44305	0.349486	1.09671
C	4.1637	-0.780371	0.461084
N	4.74016	-0.831029	-0.76314
H	6.0131	0.591025	-1.83365
H	5.63362	2.0434	0.482813
H	3.54188	-1.60458	0.846122
H	4.66933	-1.61648	-1.45546
