18
  This energy is -1.3405 and Call times are: 41667
C	-1.03992	0.336327	-0.303054
C	-0.564227	-0.91042	-0.585381
C	0.759798	-0.953918	-0.0513548
C	0.976311	0.270088	0.510165
O	-0.11232	1.07073	0.36569
H	-2.0082	0.816081	-0.521059
H	-1.09269	-1.71839	-1.11642
H	1.46201	-1.80232	-0.0860242
H	1.85028	0.68932	1.0352
C	4.46376	-1.05991	-0.267171
C	4.23188	0.123067	-0.936454
N	4.89494	1.15178	-0.354552
C	5.53574	0.609047	0.671825
N	5.30788	-0.72234	0.767094
H	4.09996	-2.08393	-0.447672
H	3.59801	0.252734	-1.82879
H	6.18531	1.14087	1.38558
H	5.6996	-1.3734	1.49092
