18
  This energy is -1.1678 and Call times are: 96453
C	0.9285	0.580507	-0.295465
C	-0.32842	1.08982	-0.440827
C	-1.21764	0.0779625	0.0341016
C	-0.425612	-0.960352	0.427761
O	0.887933	-0.670678	0.233591
H	1.91989	1.0029	-0.527812
H	-0.60196	2.07883	-0.842228
H	-2.3177	0.126466	0.0741436
H	-0.671486	-1.94585	0.856231
C	4.53086	1.01661	0.568317
C	4.37656	-0.253853	1.0814
N	4.65512	-1.19525	0.147225
C	4.98099	-0.511408	-0.941253
N	4.92132	0.826077	-0.738367
H	4.39497	2.00969	1.02533
H	4.06922	-0.508078	2.1089
H	5.27143	-0.940125	-1.91392
H	5.13231	1.57519	-1.44234
