18
  This energy is -1.0992 and Call times are: 31535
C	-0.49886	1.01859	-0.00404201
C	0.792514	0.836137	-0.403341
C	1.05341	-0.560513	-0.256987
C	-0.101565	-1.10824	0.218828
O	-1.06015	-0.158297	0.379239
H	-1.12542	1.92379	0.0533445
H	1.49127	1.60767	-0.764694
H	1.99467	-1.08716	-0.482304
H	-0.365113	-2.14634	0.479852
C	4.80336	0.512769	0.935686
C	4.608	0.841593	-0.389023
N	5.33999	0.0434443	-1.20368
C	5.987	-0.777408	-0.387458
N	5.69702	-0.534627	0.912757
H	4.38368	0.935874	1.86218
H	3.95199	1.64044	-0.771569
H	6.68539	-1.57465	-0.688946
H	6.07999	-1.0467	1.74484
