18
  This energy is -0.8405 and Call times are: 161028
C	0.974674	0.543746	0.201871
C	0.505894	0.329276	-1.06091
C	-0.726982	-0.375077	-0.905927
C	-0.902761	-0.528848	0.437885
O	0.126975	0.0263044	1.12959
H	1.88569	1.04481	0.568253
H	0.980657	0.636275	-2.00667
H	-1.39817	-0.722768	-1.70762
H	-1.70717	-1.00782	1.01992
C	4.66176	0.255404	-0.663004
C	5.27525	-0.972805	-0.535415
N	6.33048	-0.906206	0.312271
C	6.37147	0.35851	0.709054
N	5.38607	1.09937	0.148968
H	3.7901	0.577829	-1.25442
H	4.97538	-1.90581	-1.03983
H	7.1021	0.795487	1.40867
H	5.20778	2.12187	0.303764
