18
  This energy is -0.9643 and Call times are: 147837
C	0.847589	-0.0532197	0.751772
C	0.622308	-1.03688	-0.165856
C	-0.514015	-0.614291	-0.921044
C	-0.882813	0.590296	-0.398235
O	-0.0621944	0.948298	0.624228
H	1.61202	0.050885	1.53921
H	1.19852	-1.96677	-0.297715
H	-0.994011	-1.15139	-1.75484
H	-1.69946	1.28239	-0.661567
C	6.08328	-0.702446	0.527389
C	4.74806	-0.567373	0.843759
N	4.14155	0.330776	0.030132
C	5.09688	0.751292	-0.787879
N	6.28609	0.157934	-0.528453
H	6.87702	-1.32904	0.96431
H	4.21147	-1.10189	1.64452
H	4.98009	1.49259	-1.59477
H	7.19032	0.322036	-1.0351
