18
  This energy is -1.348 and Call times are: 123743
C	-0.454407	-0.74696	-0.722472
C	-0.368443	0.584363	-1.00631
C	0.253013	1.18703	0.129784
C	0.491953	0.170779	1.00758
O	0.0662939	-1.01734	0.503405
H	-0.858925	-1.59332	-1.30152
H	-0.708541	1.09118	-1.92368
H	0.490555	2.25401	0.268404
H	0.952131	0.162968	2.00929
C	3.73642	-0.697538	0.390857
C	4.72327	-0.0999921	1.14599
N	5.55375	0.63736	0.369384
C	5.08391	0.497778	-0.862844
N	3.9889	-0.29782	-0.90246
H	2.90025	-1.35693	0.672892
H	4.8509	-0.187697	2.23726
H	5.50344	0.95622	-1.77282
H	3.43733	-0.560185	-1.7558
