18
  This energy is -0.7664 and Call times are: 199118
C	0.0761434	0.956654	0.604497
C	-1.02327	0.150576	0.648181
C	-0.74547	-0.937723	-0.234175
C	0.499175	-0.700618	-0.739161
O	1.01582	0.452074	-0.237772
H	0.309323	1.90357	1.11853
H	-1.93809	0.306689	1.24216
H	-1.40209	-1.79318	-0.460334
H	1.11888	-1.26797	-1.45283
C	5.47323	0.506199	0.894574
C	4.52421	1.09103	0.0831108
N	4.07096	0.216342	-0.847477
C	4.73627	-0.906856	-0.614212
N	5.59405	-0.783078	0.426219
H	6.05186	0.903005	1.74385
H	4.15842	2.12845	0.152444
H	4.63394	-1.8498	-1.17511
H	6.22997	-1.52743	0.804113
