18
  This energy is -1.2692 and Call times are: 92183
C	0.170997	1.00376	0.499627
C	0.0258284	-0.150924	1.21097
C	-0.168318	-1.18407	0.243996
C	-0.12465	-0.569525	-0.972885
O	0.0818347	0.766714	-0.835615
H	0.340419	2.04439	0.821558
H	0.0527587	-0.263814	2.3067
H	-0.321845	-2.25726	0.440934
H	-0.225363	-0.966417	-1.9964
C	5.57583	0.654707	-0.0649004
C	4.54351	0.795386	0.838243
N	3.57746	-0.130611	0.624241
C	4.00883	-0.843044	-0.407739
N	5.2093	-0.408729	-0.859223
H	6.51405	1.21733	-0.194252
H	4.47844	1.54845	1.64043
H	3.48516	-1.69369	-0.872928
H	5.75658	-0.806337	-1.66151
