18
  This energy is -0.6398 and Call times are: 113497
C	-0.0899829	1.096	-0.277666
C	1.05498	0.565191	0.239709
C	0.780998	-0.819852	0.455821
C	-0.507208	-1.01316	0.0514309
O	-1.05444	0.146257	-0.399457
H	-0.342028	2.12097	-0.595709
H	1.99791	1.09576	0.448245
H	1.46926	-1.57667	0.865232
H	-1.14047	-1.91534	0.0340874
C	6.6047	-0.775153	0.536314
C	6.4494	-0.600104	-0.822504
N	5.55497	0.382341	-1.08954
C	5.1569	0.815129	0.0990987
N	5.76097	0.148777	1.11135
H	7.23489	-1.46869	1.11546
H	6.96672	-1.16509	-1.61498
H	4.42509	1.61758	0.285524
H	5.61451	0.306007	2.13853
