18
  This energy is -1.189 and Call times are: 44876
C	0.45459	-0.985376	-0.329822
C	0.601412	0.163962	-1.04943
C	-0.10225	1.17262	-0.323087
C	-0.616953	0.550624	0.776263
O	-0.286679	-0.767628	0.788265
H	0.823779	-2.00936	-0.504226
H	1.15018	0.288937	-1.99671
H	-0.207533	2.23514	-0.595231
H	-1.22684	0.930098	1.6125
C	5.63956	-0.883642	0.239431
C	4.30017	-0.986711	-0.0713238
N	3.75376	0.234141	-0.289194
C	4.75038	1.09133	-0.114265
N	5.90825	0.466492	0.205875
H	6.3953	-1.64996	0.474245
H	3.71829	-1.92011	-0.142229
H	4.68726	2.18742	-0.208323
H	6.83424	0.923467	0.392893
