18
  This energy is -1.8916 and Call times are: 173004
C	-0.224235	-0.953398	0.571972
C	0.636297	-0.92143	-0.485779
C	0.654982	0.434694	-0.933771
C	-0.19578	1.11172	-0.110234
O	-0.741607	0.279542	0.815275
H	-0.548563	-1.7795	1.22589
H	1.20123	-1.76791	-0.908179
H	1.23729	0.848725	-1.77258
H	-0.494109	2.17253	-0.0796476
C	4.32476	-0.897714	-0.351071
C	5.67561	-0.935967	-0.077438
N	6.13184	0.282167	0.302712
C	5.06807	1.07311	0.265057
N	3.9539	0.408722	-0.123294
H	3.62447	-1.68157	-0.680771
H	6.32922	-1.82069	-0.147502
H	5.04903	2.14683	0.512036
H	2.99101	0.81198	-0.230459
