18
  This energy is -1.9363 and Call times are: 55929
C	-0.272187	1.08734	0.173213
C	0.30043	0.314705	1.14043
C	0.489238	-0.9728	0.551538
C	0.0153311	-0.873283	-0.723562
O	-0.453522	0.377957	-0.971733
H	-0.59393	2.14173	0.174973
H	0.563474	0.620726	2.16574
H	0.927776	-1.86351	1.02947
H	-0.043705	-1.61033	-1.54119
C	3.33707	0.950192	0.206768
C	3.68112	0.433184	-1.02428
N	4.45653	-0.670266	-0.891429
C	4.593	-0.837175	0.417058
N	3.93657	0.114336	1.12226
H	2.72835	1.8246	0.486787
H	3.38374	0.836598	-2.00595
H	5.16283	-1.63961	0.912666
H	3.89267	0.199171	2.16732
