18
  This energy is -0.7247 and Call times are: 50643
C	-0.495285	-0.896774	0.486713
C	-0.478925	-0.715668	-0.865066
C	0.225661	0.506747	-1.08728
C	0.577664	0.96473	0.148327
O	0.145455	0.119987	1.12127
H	-0.924404	-1.69684	1.11202
H	-0.918886	-1.37659	-1.62908
H	0.440607	0.982052	-2.05783
H	1.12891	1.86554	0.464446
C	4.47251	0.302181	-0.150154
C	5.57679	1.1061	-0.338358
N	6.72248	0.432296	-0.0739884
C	6.33045	-0.785003	0.276889
N	4.98281	-0.913659	0.24673
H	3.39557	0.50257	-0.266676
H	5.56737	2.16023	-0.660166
H	6.98853	-1.62042	0.565418
H	4.43169	-1.77541	0.48104
