18
  This energy is -1.0866 and Call times are: 139123
C	0.321144	1.03595	-0.331791
C	0.716886	0.493864	0.855605
C	0.116992	-0.801085	0.91349
C	-0.59238	-0.936015	-0.243644
O	-0.478912	0.176443	-1.01603
H	0.537443	2.01091	-0.798591
H	1.36612	0.959212	1.61458
H	0.208623	-1.53938	1.72627
H	-1.21078	-1.76284	-0.629904
C	6.2397	-0.221082	-0.193144
C	5.26401	-1.13667	0.139846
N	4.05905	-0.534525	0.288152
C	4.28634	0.749736	0.0480799
N	5.58598	0.989684	-0.246828
H	7.31702	-0.341422	-0.389168
H	5.40793	-2.22096	0.275741
H	3.53692	1.55713	0.0746345
H	6.01407	1.92067	-0.473237
