18
  This energy is -0.7598 and Call times are: 173796
C	-0.964406	-0.100982	0.588323
C	-0.833686	-0.569491	-0.685955
C	0.503464	-0.259741	-1.08118
C	1.07182	0.370708	-0.0135264
O	0.189654	0.476244	1.0149
H	-1.81505	-0.116548	1.28934
H	-1.60182	-1.08181	-1.28728
H	0.978205	-0.484152	-2.04987
H	2.08169	0.78613	0.137574
C	4.87371	0.00311501	-0.725991
C	5.93117	0.887935	-0.729964
N	6.82232	0.588717	0.246164
C	6.31962	-0.477674	0.853391
N	5.14555	-0.86937	0.304085
H	3.97689	-0.0651443	-1.36207
H	6.06707	1.73687	-1.41967
H	6.77025	-1.0115	1.70556
H	4.55489	-1.68273	0.605459
