18
  This energy is -2.3017 and Call times are: 199598
C	0.142447	-0.261743	-1.09435
C	-0.300148	-1.1697	-0.177779
C	-0.34865	-0.474694	1.06911
C	0.0685876	0.796616	0.804425
O	0.372617	0.944407	-0.511909
H	0.332616	-0.348795	-2.17671
H	-0.565819	-2.22318	-0.361313
H	-0.659403	-0.882176	2.04455
H	0.19127	1.6766	1.45699
C	3.89567	0.834461	-0.724765
C	5.12486	0.212475	-0.782911
N	5.2579	-0.700578	0.209635
C	4.11559	-0.645234	0.880975
N	3.26125	0.265182	0.356726
H	3.44262	1.61584	-1.35542
H	5.91809	0.406175	-1.52326
H	3.85235	-1.2493	1.76417
H	2.29893	0.493827	0.707315
