18
  This energy is -0.6954 and Call times are: 10390
C	1.00818	-0.338817	0.393922
C	0.213022	-1.14447	-0.36701
C	-0.953022	-0.374937	-0.664123
C	-0.767481	0.833036	-0.0585247
O	0.424997	0.872626	0.592199
H	1.99781	-0.507852	0.849231
H	0.426209	-2.17707	-0.686984
H	-1.82367	-0.692261	-1.26026
H	-1.40028	1.73473	-0.0166195
C	5.99848	0.898626	0.759975
C	4.94318	0.470449	-0.0173013
N	5.2971	-0.593383	-0.778559
C	6.56713	-0.8243	-0.474703
N	7.03596	0.0485075	0.448333
H	6.08182	1.7207	1.48852
H	3.93277	0.910076	-0.0424489
H	7.20124	-1.6196	-0.898534
H	8.00513	0.0729611	0.850049
