18
  This energy is -0.7257 and Call times are: 75765
C	-0.758569	-0.684438	-0.492463
C	-0.0508708	-1.05406	0.613392
C	0.787963	0.0576782	0.930417
C	0.518814	1.00853	-0.0096932
O	-0.423326	0.572244	-0.88664
H	-1.51986	-1.21765	-1.08523
H	-0.113279	-2.01336	1.15186
H	1.50524	0.131734	1.76355
H	0.924677	2.0222	-0.161352
C	7.53889	-0.619142	-0.843417
C	7.80203	0.683818	-0.477089
N	6.99071	1.08069	0.533235
C	6.22715	0.0279456	0.792699
N	6.51901	-1.02231	-0.0106569
H	7.99017	-1.26641	-1.61214
H	8.56277	1.34464	-0.92369
H	5.43869	-0.0280578	1.56044
H	6.0565	-1.96425	-0.000987158
