18
  This energy is -0.6928 and Call times are: 112852
C	-0.792278	-0.537779	0.607857
C	0.219791	-1.20045	-0.0221854
C	0.999829	-0.195895	-0.672202
C	0.395571	0.99197	-0.381993
O	-0.700452	0.80195	0.3988
H	-1.629	-0.899991	1.22749
H	0.399059	-2.28761	-0.0285585
H	1.90414	-0.349326	-1.28276
H	0.644192	2.0275	-0.666792
C	5.08641	-0.804838	0.600696
C	4.97241	-0.509499	-0.74129
N	5.83431	0.472695	-1.10038
C	6.48054	0.785493	0.0145905
N	6.06555	0.0430375	1.06822
H	4.55769	-1.53404	1.23493
H	4.28371	-0.987524	-1.45685
H	7.26707	1.55061	0.115569
H	6.42181	0.102039	2.05354
