18
  This energy is -0.6037 and Call times are: 148933
C	-1.1132	0.187309	-0.109967
C	-0.179471	1.13229	-0.419046
C	1.08842	0.531005	-0.152531
C	0.81755	-0.72833	0.295885
O	-0.522027	-0.955263	0.328268
H	-2.21442	0.204602	-0.157575
H	-0.364939	2.15061	-0.796818
H	2.08144	0.990442	-0.282577
H	1.48047	-1.54767	0.619107
C	5.25927	0.823279	-0.0218081
C	5.63606	-0.00236176	-1.05983
N	6.63929	-0.832493	-0.684428
C	6.88394	-0.52302	0.581667
N	6.07796	0.469608	1.0274
H	4.49206	1.6112	0.0423566
H	5.20201	-0.0139427	-2.0729
H	7.64227	-0.991971	1.22917
H	6.07693	0.889751	1.98904
