18
  This energy is -1.5809 and Call times are: 119058
C	0.479436	-0.989581	0.277978
C	-0.252071	-0.826954	-0.861682
C	-0.682188	0.53507	-0.85919
C	-0.175549	1.08452	0.281771
O	0.536563	0.167635	0.98833
H	1.00392	-1.86677	0.691148
H	-0.467199	-1.58961	-1.6273
H	-1.29711	1.0384	-1.62249
H	-0.249531	2.10246	0.698408
C	4.87072	-0.712988	0.742305
C	5.1557	0.610868	0.482805
N	4.29435	1.12678	-0.427375
C	3.47813	0.12679	-0.73137
N	3.78443	-1.004	-0.0523421
H	5.34815	-1.4442	1.41382
H	5.96738	1.203	0.936017
H	2.63933	0.168116	-1.44477
H	3.28883	-1.92663	-0.118592
