18
  This energy is -1.0603 and Call times are: 124480
C	0.467456	-0.896026	-0.514804
C	-0.855361	-0.588703	-0.641619
C	-1.06015	0.58821	0.14136
C	0.155603	0.896186	0.677523
O	1.10011	0.000283387	0.287309
H	1.07176	-1.71469	-0.93891
H	-1.61111	-1.13589	-1.22773
H	-2.00624	1.13496	0.283019
H	0.474963	1.71508	1.34286
C	4.15809	-1.08067	0.14822
C	4.70435	-0.561211	-1.0063
N	5.11557	0.716614	-0.820352
C	4.82552	0.988851	0.44471
N	4.2468	-0.0627877	1.07139
H	3.72689	-2.06964	0.370776
H	4.80913	-1.08556	-1.97011
H	5.01547	1.94255	0.962993
H	3.92667	-0.0963619	2.07021
