18
  This energy is -1.1659 and Call times are: 173828
C	-1.06024	-0.260593	0.307234
C	-0.206946	0.415539	1.12889
C	1.01329	0.55128	0.399019
C	0.797954	-0.0538846	-0.804217
O	-0.463101	-0.555263	-0.877508
H	-2.10357	-0.58813	0.446625
H	-0.415847	0.781939	2.14683
H	1.9386	1.04385	0.738553
H	1.45246	-0.19255	-1.68037
C	5.83134	0.229553	-0.966339
C	5.98415	0.804019	0.27776
N	5.08548	0.304243	1.16045
C	4.37786	-0.57692	0.466585
N	4.78903	-0.658516	-0.820997
H	6.3725	0.384687	-1.91324
H	6.72673	1.57015	0.554274
H	3.5473	-1.18983	0.852254
H	4.38988	-1.2799	-1.56653
