18
  This energy is -1.1872 and Call times are: 38697
C	-0.347583	1.07629	0.0847492
C	0.34802	0.452947	1.07871
C	0.601669	-0.871263	0.607276
C	0.0386767	-0.940226	-0.63315
O	-0.545425	0.240247	-0.968293
H	-0.753018	2.0984	0.00623286
H	0.652014	0.882543	2.04676
H	1.14143	-1.67251	1.13714
H	-0.0138302	-1.76062	-1.36762
C	5.55248	0.689411	-0.586153
C	4.3581	0.183174	-1.0534
N	3.74598	-0.573712	-0.110562
C	4.55754	-0.537165	0.937612
N	5.66065	0.211598	0.700775
H	6.30793	1.33436	-1.06248
H	3.92707	0.350503	-2.05393
H	4.3924	-1.0408	1.90369
H	6.44825	0.393494	1.36999
