18
  This energy is -0.697 and Call times are: 168923
C	0.430557	0.792515	0.687707
C	1.19401	0.121955	-0.222163
C	0.307756	-0.778638	-0.888199
C	-0.919037	-0.578915	-0.326539
O	-0.862494	0.377146	0.637702
H	0.685048	1.57739	1.41878
H	2.27302	0.248786	-0.405876
H	0.562998	-1.4889	-1.69099
H	-1.89768	-1.04713	-0.522191
C	5.41684	-0.872	-0.625509
C	5.21747	0.481026	-0.800783
N	5.9327	1.20072	0.097544
C	6.57334	0.297613	0.827341
N	6.29537	-0.966871	0.430598
H	5.00929	-1.74494	-1.15976
H	4.57037	0.950815	-1.55934
H	7.25835	0.507588	1.66454
H	6.67649	-1.85106	0.847983
