18
  This energy is -1.8085 and Call times are: 131536
C	-0.332539	-0.992178	0.437494
C	-0.331616	-0.74933	-0.904667
C	0.144991	0.588181	-1.05967
C	0.393243	1.0446	0.201448
O	0.107183	0.0925512	1.12816
H	-0.61912	-1.88383	1.01894
H	-0.636023	-1.44252	-1.70524
H	0.283587	1.1382	-2.00433
H	0.769815	2.01396	0.567214
C	3.66402	0.567826	0.81129
C	4.7706	1.04719	0.142843
N	5.25557	0.124921	-0.723606
C	4.4529	-0.922615	-0.593175
N	3.47732	-0.705086	0.320346
H	3.01774	1.02711	1.57609
H	5.22775	2.042	0.270229
H	4.53427	-1.8745	-1.14228
H	2.72252	-1.37791	0.601135
