18
  This energy is -0.9192 and Call times are: 100184
C	0.915677	0.373701	0.555233
C	1.00459	-0.330769	-0.609323
C	-0.339984	-0.618756	-0.995711
C	-1.13185	-0.0648482	-0.0331626
O	-0.381698	0.545331	0.921802
H	1.69086	0.802985	1.21102
H	1.92472	-0.618733	-1.14275
H	-0.669633	-1.1744	-1.88828
H	-2.22751	-0.0362697	0.0850019
C	5.1046	-0.226266	0.8374
C	4.89116	0.448301	-0.346047
N	6.03033	0.527185	-1.07583
C	6.94699	-0.0960749	-0.347891
N	6.43829	-0.568249	0.814806
H	4.42449	-0.47873	1.6664
H	3.9356	0.87949	-0.686389
H	8.00592	-0.235421	-0.618976
H	6.96038	-1.09457	1.55755
