18
  This energy is -1.1585 and Call times are: 207604
C	0.178491	1.11604	-0.0948334
C	-0.124517	0.330984	-1.16826
C	-0.273849	-0.993311	-0.654393
C	-0.0489138	-0.900606	0.687689
O	0.228789	0.380387	1.04679
H	0.378427	2.19704	-0.0128893
H	-0.232079	0.652223	-2.21675
H	-0.520214	-1.90299	-1.22525
H	-0.0567578	-1.66223	1.48463
C	4.58917	-1.03311	0.552712
C	3.75131	0.056698	0.659735
N	4.1795	1.08049	-0.118089
C	5.27882	0.627537	-0.705419
N	5.56784	-0.642016	-0.333537
H	4.55923	-2.02616	1.02863
H	2.84551	0.122606	1.28426
H	5.91059	1.18381	-1.41651
H	6.38227	-1.21856	-0.658428
