18
  This energy is -1.0116 and Call times are: 176295
C	0.0698879	1.12302	-0.142652
C	-0.139909	0.55354	1.07885
C	-0.166293	-0.856646	0.85346
C	0.0297105	-1.02443	-0.485871
O	0.175858	0.174079	-1.10976
H	0.162069	2.17716	-0.451731
H	-0.263671	1.07427	2.04197
H	-0.314579	-1.64667	1.60709
H	0.0851806	-1.93241	-1.10855
C	3.96314	0.303789	-0.0189109
C	4.98756	0.971345	0.618327
N	6.17246	0.340851	0.431238
C	5.88422	-0.713836	-0.319211
N	4.56503	-0.78054	-0.617364
H	2.88439	0.516527	-0.086614
H	4.89294	1.89662	1.20973
H	6.60111	-1.46942	-0.678905
H	4.09105	-1.5178	-1.19446
