18
  This energy is -1.2938 and Call times are: 188136
C	1.01096	0.419603	0.297151
C	0.467615	0.627933	-0.936442
C	-0.791053	-0.0472019	-0.928383
C	-0.905753	-0.608498	0.309423
O	0.185756	-0.333525	1.07101
H	1.9646	0.74928	0.741154
H	0.908898	1.19967	-1.76859
H	-1.51969	-0.102993	-1.75304
H	-1.70343	-1.2182	0.76464
C	5.10279	1.02971	0.569905
C	5.8857	-0.0711286	0.846223
N	5.6209	-1.08667	-0.0111361
C	4.6773	-0.617637	-0.816274
N	4.33074	0.654241	-0.506738
H	5.04242	2.02065	1.04731
H	6.63689	-0.150796	1.64885
H	4.20492	-1.16332	-1.64893
H	3.61104	1.2423	-0.994058
