18
  This energy is -1.0428 and Call times are: 96068
C	0.613305	0.896637	-0.326039
C	0.676186	0.389525	0.938579
C	-0.225559	-0.717935	0.961031
C	-0.75988	-0.789814	-0.291849
O	-0.258804	0.188612	-1.09098
H	1.132	1.74628	-0.799656
H	1.29545	0.758326	1.772
H	-0.444462	-1.37851	1.81532
H	-1.49587	-1.48109	-0.734227
C	4.4068	0.83926	-0.227088
C	4.62858	0.215767	0.982547
N	5.61967	-0.703226	0.884121
C	6.01126	-0.650054	-0.381762
N	5.3104	0.264676	-1.09285
H	3.6937	1.62497	-0.523201
H	4.09121	0.412562	1.92455
H	6.80683	-1.25884	-0.840755
H	5.43214	0.492736	-2.10992
