18
  This energy is -0.7844 and Call times are: 153394
C	-0.506448	-0.756714	-0.676236
C	-0.805914	-0.646572	0.649873
C	0.0258563	0.399947	1.15294
C	0.760179	0.836934	0.0898344
O	0.448003	0.141642	-1.03539
H	-0.89704	-1.42532	-1.46088
H	-1.539	-1.2425	1.21693
H	0.0658964	0.776754	2.18759
H	1.52691	1.62446	0.00515739
C	5.58994	1.13222	-0.138198
C	4.53259	0.631946	0.591785
N	4.49584	-0.721499	0.53394
C	5.52648	-1.05958	-0.229027
N	6.21746	0.0226542	-0.659031
H	5.92894	2.16485	-0.317909
H	3.79558	1.22334	1.15916
H	5.82065	-2.08511	-0.504663
H	7.06899	0.0174833	-1.27233
