18
  This energy is -1.3593 and Call times are: 116240
C	0.108509	-0.889235	-0.695621
C	0.124702	-1.01778	0.662167
C	-0.0366234	0.302824	1.18188
C	-0.137159	1.12179	0.0958054
O	-0.0505855	0.410612	-1.05907
H	0.199508	-1.6356	-1.50179
H	0.238805	-1.94913	1.23981
H	-0.072471	0.598966	2.24259
H	-0.270629	2.21291	0.0127693
C	5.00443	-0.535233	0.856316
C	3.65422	-0.256016	0.846607
N	3.29285	0.36955	-0.299948
C	4.41462	0.478005	-0.998874
N	5.47475	-0.0526235	-0.34455
H	5.6426	-1.02681	1.60773
H	2.93432	-0.494736	1.64636
H	4.51615	0.937204	-1.9954
H	6.46609	-0.0893898	-0.686812
