18
  This energy is -1.2 and Call times are: 101858
C	0.926551	-0.454496	0.470465
C	-0.278133	-0.426189	1.10946
C	-1.18295	0.215692	0.209778
C	-0.451305	0.522965	-0.899573
O	0.839126	0.120892	-0.757662
H	1.9083	-0.850302	0.778305
H	-0.506674	-0.818009	2.11362
H	-2.2525	0.420496	0.377695
H	-0.728516	1.02027	-1.84355
C	4.54178	-0.526397	-0.730134
C	4.37011	0.68247	-0.0895758
N	5.44543	0.986189	0.677201
C	6.28102	-0.0303943	0.512956
N	5.78193	-0.968342	-0.32654
H	3.8909	-1.08482	-1.42155
H	3.48962	1.34095	-0.166953
H	7.2714	-0.138578	0.983778
H	6.25043	-1.86196	-0.615015
