18
  This energy is -0.7477 and Call times are: 180212
C	-1.06799	0.17256	-0.340629
C	-0.727237	-0.835821	0.512267
C	0.684538	-0.72835	0.700574
C	1.08188	0.336219	-0.0538731
O	0.0245231	0.898334	-0.696558
H	-2.03987	0.474914	-0.76405
H	-1.40232	-1.58062	0.963528
H	1.32169	-1.37325	1.32686
H	2.07434	0.78811	-0.215285
C	6.94869	-0.472987	0.248264
C	5.77582	-0.644741	0.952559
N	4.75881	0.0476183	0.384369
C	5.2987	0.646615	-0.668412
N	6.61706	0.364078	-0.793626
H	7.96205	-0.873822	0.409383
H	5.64522	-1.25583	1.8605
H	4.77396	1.30317	-1.38102
H	7.26345	0.715683	-1.54184
