18
  This energy is -0.7703 and Call times are: 121022
C	0.349259	1.01916	-0.354579
C	-0.693783	0.361067	-0.937114
C	-0.827534	-0.868975	-0.223514
C	0.145581	-0.853955	0.732097
O	0.873722	0.291701	0.666572
H	0.8091	1.99736	-0.571203
H	-1.30743	0.707099	-1.78434
H	-1.5655	-1.66626	-0.407455
H	0.419322	-1.58724	1.50838
C	5.27028	-0.21168	-1.15557
C	4.13216	-0.235805	-0.377604
N	4.41729	0.0564665	0.914599
C	5.72732	0.26113	0.93819
N	6.28754	0.111195	-0.285438
H	5.4232	-0.395301	-2.23095
H	3.11038	-0.458864	-0.725551
H	6.32701	0.523363	1.82466
H	7.30328	0.220146	-0.525555
