18
  This energy is -1.7073 and Call times are: 13134
C	-0.854043	-0.741962	-0.0806372
C	-0.425086	-0.249291	1.11671
C	0.648799	0.641417	0.810884
C	0.781276	0.614415	-0.546353
O	-0.128483	-0.225206	-1.10706
H	-1.65508	-1.45617	-0.332617
H	-0.82479	-0.489052	2.11513
H	1.24726	1.22956	1.52504
H	1.47444	1.13954	-1.22386
C	4.59084	-0.420959	1.07895
C	5.4656	-0.935057	0.14534
N	5.45477	-0.198406	-0.992086
C	4.57662	0.769012	-0.764966
N	4.02827	0.678434	0.469819
H	4.3373	-0.74872	2.09965
H	6.10436	-1.82431	0.272083
H	4.2973	1.5698	-1.46849
H	3.31119	1.3229	0.884208
