18
  This energy is -2.249 and Call times are: 129129
C	-0.319205	0.621174	0.893674
C	0.113777	-0.666408	1.01629
C	0.419171	-1.10406	-0.308592
C	0.145853	-0.0452911	-1.12387
O	-0.306082	1.01682	-0.406444
H	-0.660162	1.35251	1.64477
H	0.208595	-1.2495	1.9464
H	0.797851	-2.09395	-0.609948
H	0.229821	0.0770943	-2.21621
C	4.59847	0.39974	-1.089
C	5.41214	0.560259	0.0125095
N	4.87434	-0.0300039	1.10744
C	3.73138	-0.55471	0.686798
N	3.51965	-0.322769	-0.630383
H	4.70716	0.73727	-2.13197
H	6.37762	1.0914	0.0368015
H	3.01152	-1.1188	1.30148
H	2.69148	-0.634025	-1.19474
