18
  This energy is -0.9643 and Call times are: 15710
C	-0.449588	0.573714	0.868979
C	-1.1915	0.171054	-0.202378
C	-0.285534	-0.510035	-1.07155
C	0.930024	-0.463453	-0.454607
O	0.84829	0.194683	0.731643
H	-0.723755	1.12928	1.78081
H	-2.26868	0.337004	-0.364347
H	-0.520629	-0.977151	-2.04141
H	1.91642	-0.855558	-0.752146
C	6.06649	-1.07869	-0.0625754
C	6.74622	0.107855	0.114121
N	5.89321	1.16059	0.139225
C	4.68887	0.629155	-0.0212883
N	4.74024	-0.718074	-0.14748
H	6.42087	-2.11945	-0.131605
H	7.83686	0.223191	0.223943
H	3.73554	1.18082	-0.0539174
H	3.92508	-1.36471	-0.283989
