18
  This energy is -0.6356 and Call times are: 155696
C	0.0589358	-1.03979	-0.449171
C	-1.12231	-0.374311	-0.300321
C	-0.791029	0.88272	0.291491
C	0.563418	0.874424	0.452044
O	1.09887	-0.291989	0.0050712
H	0.289769	-2.03689	-0.858766
H	-2.12623	-0.732663	-0.579285
H	-1.48702	1.69277	0.562611
H	1.2552	1.62636	0.865896
C	5.894	0.108474	-1.01019
C	4.53117	0.223393	-0.835155
N	4.18802	0.0394244	0.462886
C	5.3336	-0.188756	1.09073
N	6.39144	-0.157598	0.245974
H	6.52404	0.19434	-1.90976
H	3.78936	0.435754	-1.62222
H	5.45491	-0.384586	2.16831
H	7.39863	-0.307554	0.499603
