18
  This energy is -0.6075 and Call times are: 33894
C	-0.0633555	-0.551119	0.98927
C	1.03879	-0.612711	0.188112
C	0.74169	0.199392	-0.948698
C	-0.515783	0.685559	-0.741874
O	-1.02257	0.237378	0.436819
H	-0.285937	-1.01645	1.96353
H	1.9678	-1.17374	0.378568
H	1.39455	0.393205	-1.8149
H	-1.15175	1.35019	-1.34938
C	5.14714	-0.601172	0.544341
C	5.66643	0.620286	0.917856
N	6.63844	1.02021	0.062413
C	6.72183	0.0505382	-0.83837
N	5.84317	-0.949776	-0.591527
H	4.35786	-1.22615	0.991537
H	5.35716	1.22016	1.78927
H	7.40897	0.0223367	-1.69934
H	5.71632	-1.82428	-1.15757
