18
  This energy is -1.7509 and Call times are: 203877
C	-0.0564555	1.11649	-0.191473
C	0.522263	0.252402	-1.07398
C	0.399518	-1.04472	-0.488712
C	-0.243373	-0.858774	0.69977
O	-0.529397	0.455042	0.897482
H	-0.193304	2.20993	-0.221877
H	0.988789	0.503266	-2.04016
H	0.751954	-1.99952	-0.9109
H	-0.551009	-1.57015	1.4837
C	4.1541	0.170461	1.16358
C	3.90263	1.10347	0.180019
N	4.04812	0.563486	-1.05439
C	4.38854	-0.699712	-0.837441
N	4.46569	-0.985844	0.483834
H	4.13404	0.245028	2.26248
H	3.61884	2.15658	0.338961
H	4.59294	-1.45829	-1.6101
H	4.7153	-1.91206	0.909362
