18
  This energy is -1.1629 and Call times are: 31311
C	0.169473	-0.191615	-1.10497
C	0.803911	0.81069	-0.431736
C	0.337522	0.732686	0.916045
C	-0.540748	-0.3104	0.947441
O	-0.655547	-0.886392	-0.278148
H	0.21874	-0.509457	-2.15939
H	1.52772	1.53255	-0.842971
H	0.627824	1.38204	1.75756
H	-1.14042	-0.736777	1.76833
C	4.31917	0.737271	-0.834561
C	4.37705	-0.638307	-0.909258
N	4.8691	-1.16958	0.236232
C	5.11554	-0.127554	1.01858
N	4.80068	1.04471	0.418363
H	3.98069	1.49392	-1.56014
H	4.07259	-1.25695	-1.76916
H	5.52662	-0.166312	2.04022
H	4.90373	2.00485	0.82917
