18
  This energy is -0.7337 and Call times are: 22636
C	-0.726768	0.610565	-0.620822
C	0.519282	0.282252	-1.06797
C	1.123	-0.477859	-0.0201797
C	0.192581	-0.546939	0.974767
O	-0.943196	0.11234	0.624948
H	-1.54273	1.18654	-1.08742
H	0.968253	0.548619	-2.03832
H	2.13312	-0.91801	-0.0166081
H	0.216632	-1.02859	1.96607
C	6.27256	0.313967	-0.913337
C	5.9196	1.09986	0.163199
N	5.13424	0.416244	1.03059
C	5.00048	-0.789169	0.494206
N	5.66819	-0.900852	-0.67852
H	6.89043	0.526133	-1.80033
H	6.21756	2.1479	0.329579
H	4.42472	-1.62758	0.918238
H	5.71631	-1.7509	-1.292
