18
  This energy is -1.0118 and Call times are: 15133
C	1.03234	0.329979	-0.334343
C	0.454315	-0.822685	-0.778894
C	-0.822813	-0.890197	-0.142888
C	-0.91248	0.227172	0.634172
O	0.211636	0.983742	0.529397
H	2.00969	0.789923	-0.554571
H	0.884159	-1.55222	-1.48396
H	-1.58005	-1.68248	-0.256785
H	-1.71213	0.593181	1.29888
C	4.95706	0.912569	0.0187652
C	6.31639	0.9567	-0.208024
N	6.86069	-0.283341	-0.1576
C	5.84291	-1.09368	0.0994941
N	4.67358	-0.420631	0.21474
H	4.19675	1.70898	0.0534106
H	6.91413	1.86108	-0.407132
H	5.89804	-2.18831	0.21342
H	3.73068	-0.835376	0.415191
