18
  This energy is -1.1267 and Call times are: 109607
C	0.48805	-1.02196	-0.0616157
C	-0.184964	-0.469436	-1.11144
C	-0.648026	0.801784	-0.653524
C	-0.217103	0.913861	0.635708
O	0.478403	-0.190874	1.01366
H	1.01104	-1.98648	0.0453438
H	-0.339796	-0.912594	-2.10831
H	-1.23327	1.54022	-1.22475
H	-0.33842	1.71812	1.37982
C	5.09449	1.14641	-0.181717
C	3.87756	0.539428	0.0458828
N	4.02219	-0.797484	0.213987
C	5.3239	-1.01905	0.0911411
N	6.01349	0.121473	-0.148157
H	5.36261	2.20003	-0.359268
H	2.89778	1.0422	0.0918099
H	5.82542	-1.99725	0.16747
H	7.05063	0.208417	-0.282524
