18
  This energy is -1.0139 and Call times are: 168058
C	-0.531493	1.00116	0.0400459
C	-0.555033	0.205474	-1.06752
C	0.215529	-0.95031	-0.735083
C	0.641924	-0.758882	0.546289
O	0.194984	0.427774	1.03527
H	-0.985719	1.98482	0.243376
H	-1.06397	0.411745	-2.02279
H	0.422828	-1.81833	-1.38135
H	1.25986	-1.38338	1.21218
C	5.56009	0.502168	-0.834982
C	5.65404	-0.793838	-0.373802
N	4.73639	-1.03597	0.593569
C	4.07568	0.105486	0.731993
N	4.53489	1.06385	-0.107203
H	6.13119	1.04634	-1.60392
H	6.36751	-1.55852	-0.721744
H	3.24673	0.294243	1.43303
H	4.17797	2.04738	-0.188047
