18
  This energy is -0.6158 and Call times are: 97093
C	0.255084	-0.444066	-1.012
C	0.91408	-0.798672	0.128333
C	0.316262	-0.0369617	1.17835
C	-0.655278	0.715873	0.586973
O	-0.706609	0.479921	-0.750452
H	0.374351	-0.772516	-2.05753
H	1.73846	-1.52388	0.220805
H	0.584979	-0.0541701	2.2468
H	-1.36782	1.44727	1.00243
C	6.57899	0.901829	0.486387
C	7.13098	-0.183989	-0.159711
N	6.16951	-1.03284	-0.597357
C	5.02539	-0.47574	-0.224182
N	5.21904	0.692384	0.432761
H	7.04223	1.77948	0.964586
H	8.20577	-0.370115	-0.31792
H	4.01692	-0.88074	-0.406374
H	4.47498	1.3191	0.82628
