18
  This energy is -1.1669 and Call times are: 109896
C	0.798338	0.48175	-0.645736
C	-0.39872	1.08467	-0.392931
C	-1.12233	0.181506	0.444202
C	-0.303584	-0.893601	0.629059
O	0.87357	-0.727191	-0.0294453
H	1.66848	0.804807	-1.24049
H	-0.738116	2.06689	-0.759211
H	-2.13432	0.324233	0.856031
H	-0.440275	-1.82721	1.19909
C	5.07865	-0.0635712	-1.13039
C	6.35915	-0.156836	-0.627629
N	6.36366	-0.0403792	0.72253
C	5.0908	0.124505	1.0561
N	4.2766	0.117786	-0.0258508
H	4.69422	-0.111814	-2.16162
H	7.27984	-0.306069	-1.21491
H	4.69968	0.2548	2.078
H	3.23315	0.229454	-0.0237128
