18
  This energy is -0.6995 and Call times are: 16082
C	0.285474	0.902452	0.624888
C	-0.920059	0.802092	-0.00518335
C	-0.905131	-0.45689	-0.679616
C	0.308207	-1.01474	-0.402143
O	1.04824	-0.198257	0.393294
H	0.715143	1.6951	1.2592
H	-1.7378	1.54055	0.00405012
H	-1.70899	-0.888648	-1.29726
H	0.758648	-1.97384	-0.706241
C	7.15479	0.604791	0.670532
C	6.26449	-0.360486	1.09095
N	5.54788	-0.850688	0.0504274
C	5.99193	-0.192024	-1.01146
N	6.96136	0.696944	-0.689719
H	7.88786	1.21239	1.22458
H	6.12638	-0.712	2.12643
H	5.64189	-0.32156	-2.04825
H	7.46894	1.33485	-1.35056
