18
  This energy is -0.7853 and Call times are: 159353
C	0.0842816	1.13091	-0.0187311
C	-0.968868	0.486443	0.560853
C	-0.719027	-0.908661	0.383698
C	0.464741	-0.99357	-0.288504
O	0.969392	0.242488	-0.542474
H	0.31742	2.20328	-0.123216
H	-1.83479	0.947252	1.06278
H	-1.35272	-1.74459	0.72096
H	1.04551	-1.86235	-0.639483
C	7.29002	0.479422	0.602581
C	6.17033	-0.131469	1.12625
N	5.34863	-0.571503	0.142541
C	5.95625	-0.234877	-0.987103
N	7.1305	0.4011	-0.762925
H	8.16004	0.948691	1.08878
H	5.94065	-0.262597	2.19626
H	5.58537	-0.430012	-2.00622
H	7.79316	0.765162	-1.49066
