18
  This energy is -1.6992 and Call times are: 181363
C	0.3054	1.07578	0.189296
C	-0.143038	0.646714	-1.02527
C	-0.423192	-0.745148	-0.869225
C	-0.121222	-1.04376	0.42693
O	0.325197	0.0565319	1.08805
H	0.636822	2.06783	0.537497
H	-0.264372	1.24985	-1.93939
H	-0.804927	-1.43574	-1.63829
H	-0.179606	-1.98835	0.992259
C	4.70761	0.710554	0.845023
C	5.09124	-0.591378	0.602241
N	4.41602	-1.11134	-0.451436
C	3.61654	-0.135682	-0.860769
N	3.75508	0.983499	-0.111216
H	5.03413	1.43787	1.60524
H	5.84314	-1.16485	1.16848
H	2.90956	-0.187294	-1.70442
H	3.23583	1.88701	-0.234933
