18
  This energy is -0.7447 and Call times are: 131889
C	0.869003	-0.666895	0.294085
C	-0.349959	-0.745398	0.900998
C	-1.16721	0.238706	0.265578
C	-0.375512	0.831707	-0.673538
O	0.871339	0.291003	-0.669988
H	1.80335	-1.22937	0.454886
H	-0.644112	-1.42784	1.71453
H	-2.22099	0.47098	0.488494
H	-0.578282	1.63851	-1.39686
C	5.87998	0.960388	0.0194683
C	5.05918	0.54833	-1.00895
N	4.41985	-0.603805	-0.692175
C	4.84241	-0.905354	0.528125
N	5.72411	0.00715558	1.00092
H	6.54189	1.83531	0.119045
H	4.91685	1.06172	-1.97385
H	4.5383	-1.78261	1.12156
H	6.19857	-0.00851282	1.93681
