18
  This energy is -0.9363 and Call times are: 70879
C	1.00681	0.521773	0.0221031
C	0.587863	-0.300137	1.02675
C	-0.708644	-0.759151	0.641406
C	-0.967523	-0.177218	-0.564707
O	0.0693665	0.60837	-0.958057
H	1.93791	1.0965	-0.112005
H	1.13676	-0.557376	1.94688
H	-1.36484	-1.44304	1.20336
H	-1.84038	-0.241158	-1.23499
C	5.90104	-0.179895	0.928051
C	4.75977	-0.882735	0.604529
N	4.19902	-0.40683	-0.533708
C	4.98941	0.587467	-0.914869
N	6.02981	0.763929	-0.0663345
H	6.60712	-0.2812	1.76753
H	4.33092	-1.72469	1.17202
H	4.85267	1.21918	-1.80732
H	6.78977	1.48276	-0.15
