18
  This energy is -0.9963 and Call times are: 43754
C	-0.849034	-0.738766	-0.140595
C	-0.981941	0.589057	-0.422719
C	0.28254	1.1812	-0.121765
C	1.07653	0.162954	0.3177
O	0.40168	-1.01669	0.312707
H	-1.56011	-1.57753	-0.218694
H	-1.8803	1.10026	-0.80446
H	0.559509	2.24279	-0.223771
H	2.12485	0.148097	0.65835
C	5.37483	-0.739855	0.898411
C	4.59086	-0.959952	-0.214287
N	4.61752	0.106856	-1.04958
C	5.415	0.985431	-0.457332
N	5.89685	0.521853	0.720169
H	5.59097	-1.37075	1.77522
H	4.00647	-1.8694	-0.429343
H	5.68011	1.98333	-0.842224
H	6.54467	1.02727	1.37296
