18
  This energy is -1.2665 and Call times are: 53671
C	-0.202381	1.10223	-0.174717
C	0.364239	0.636977	0.975437
C	0.45504	-0.780086	0.821153
C	-0.064107	-1.05568	-0.409662
O	-0.470528	0.08219	-1.03182
H	-0.46308	2.12259	-0.50054
H	0.685984	1.23198	1.84523
H	0.861185	-1.50223	1.54754
H	-0.198465	-2.00703	-0.950157
C	5.49724	0.814973	0.603507
C	5.94667	0.0956169	-0.483544
N	4.99489	-0.758801	-0.931418
C	3.95893	-0.57022	-0.125281
N	4.21212	0.368768	0.816945
H	5.98471	1.58708	1.21975
H	6.94065	0.177809	-0.952701
H	2.99055	-1.09313	-0.180349
H	3.5547	0.69477	1.56714
