18
  This energy is -1.4231 and Call times are: 157419
C	0.61087	-0.24732	-0.923077
C	0.276011	-1.18898	0.00510088
C	-0.482234	-0.502799	1.00226
C	-0.543792	0.797607	0.595411
O	0.118437	0.971623	-0.578549
H	1.1881	-0.316809	-1.85968
H	0.536794	-2.25942	-0.0108285
H	-0.926234	-0.935432	1.91319
H	-1.02158	1.68288	1.04626
C	4.52324	-0.0326221	1.16997
C	4.94342	0.96952	0.321263
N	4.63783	0.679167	-0.96669
C	4.03039	-0.498623	-0.917179
N	3.93682	-0.969696	0.348888
H	4.59757	-0.141621	2.26365
H	5.46159	1.89686	0.615179
H	3.63437	-1.06091	-1.77812
H	3.50064	-1.87608	0.648026
