18
  This energy is -1.1103 and Call times are: 93360
C	0.616358	-0.102292	0.946594
C	1.04617	-0.572866	-0.259306
C	0.0108829	-0.260512	-1.19244
C	-0.960186	0.373365	-0.474385
O	-0.607087	0.478626	0.833764
H	1.08175	-0.118669	1.94579
H	1.99689	-1.08824	-0.47054
H	-0.000691843	-0.485556	-2.27101
H	-1.93529	0.791599	-0.773547
C	5.37167	0.380176	1.04996
C	4.70272	1.11417	0.093455
N	4.42673	0.358956	-0.997411
C	4.92257	-0.838996	-0.718708
N	5.50261	-0.877306	0.504268
H	5.75115	0.654544	2.04709
H	4.41428	2.17514	0.170919
H	4.88835	-1.72381	-1.37458
H	5.96415	-1.70687	0.951557
