18
  This energy is -1.5715 and Call times are: 103424
C	-0.431088	-0.936486	0.47282
C	0.77209	-0.930055	-0.169594
C	0.966832	0.410802	-0.621583
C	-0.134533	1.10538	-0.215473
O	-0.998697	0.298217	0.454388
H	-0.985825	-1.74413	0.978023
H	1.45406	-1.78388	-0.310996
H	1.82981	0.803294	-1.18311
H	-0.418307	2.16341	-0.339169
C	5.52053	-1.15143	0.211595
C	6.52886	-0.214102	0.135314
N	6.03081	1.0194	-0.123364
C	4.71848	0.847961	-0.20724
N	4.3609	-0.443497	-0.0126533
H	5.54528	-2.23597	0.403196
H	7.60682	-0.40577	0.262293
H	3.97321	1.6341	-0.40921
H	3.38603	-0.831573	-0.0294169
