18
  This energy is -1.3628 and Call times are: 137490
C	-0.443681	-0.17724	-1.02866
C	0.662727	-0.840891	-0.58616
C	0.909594	-0.353079	0.733391
C	-0.067749	0.565604	0.980766
O	-0.903015	0.68572	-0.0845573
H	-0.994515	-0.228745	-1.98217
H	1.24646	-1.59799	-1.13401
H	1.72279	-0.656763	1.41205
H	-0.275091	1.19284	1.86328
C	5.58065	-0.788085	-0.393191
C	5.3542	-0.431485	0.919327
N	4.38151	0.507789	1.00962
C	4.00596	0.733031	-0.242114
N	4.69938	-0.0239927	-1.12511
H	6.28313	-1.50752	-0.843162
H	5.87524	-0.835109	1.80276
H	3.22787	1.44183	-0.568326
H	4.58707	-0.0280873	-2.16848
