18
  This energy is -1.3088 and Call times are: 209840
C	-0.563103	0.980774	0.0860133
C	0.79584	0.925334	-0.0168186
C	1.12509	-0.46179	-0.103982
C	-0.0617191	-1.13155	-0.0467203
O	-1.10323	-0.266223	0.0693779
H	-1.2553	1.83404	0.175778
H	1.49615	1.77592	-0.0299718
H	2.13143	-0.900532	-0.198153
H	-0.295798	-2.20834	-0.0782347
C	4.62042	1.00112	0.216665
C	5.48127	0.342292	1.06874
N	5.97244	-0.782248	0.493703
C	5.41841	-0.820911	-0.710531
N	4.59508	0.232414	-0.925545
H	4.04329	1.93154	0.338228
H	5.75675	0.658225	2.08812
H	5.58101	-1.59798	-1.4747
H	4.04269	0.426524	-1.79643
