18
  This energy is -1.4651 and Call times are: 48411
C	-0.330873	-0.997743	0.425951
C	0.395042	-0.0987539	1.15069
C	0.614056	1.01577	0.284667
C	0.00264273	0.699464	-0.892829
O	-0.579545	-0.52666	-0.824351
H	-0.726535	-1.99421	0.682376
H	0.741526	-0.209362	2.19079
H	1.16411	1.9411	0.519811
H	-0.0882838	1.25375	-1.84138
C	3.69149	-0.0138881	-0.85511
C	4.07243	1.0709	-0.0940122
N	5.03101	0.727834	0.80038
C	5.24394	-0.564865	0.59492
N	4.46058	-1.05852	-0.393124
H	2.9522	-0.113096	-1.66575
H	3.67277	2.09496	-0.174216
H	5.96207	-1.19861	1.1398
H	4.44252	-2.04844	-0.740976
