18
  This energy is -1.6879 and Call times are: 34439
C	-0.221839	-0.936166	-0.600651
C	0.866524	-0.83238	0.214867
C	0.801575	0.473749	0.789258
C	-0.320744	1.05282	0.274038
O	-0.958022	0.205969	-0.576688
H	-0.578833	-1.75838	-1.24235
H	1.63772	-1.59871	0.393978
H	1.5124	0.921454	1.50226
H	-0.76811	2.04796	0.431548
C	4.43158	0.965549	0.672168
C	4.51335	-0.342957	1.0991
N	4.44368	-1.20311	0.0542067
C	4.31917	-0.431155	-1.01687
N	4.30672	0.884513	-0.696784
H	4.4527	1.91692	1.22713
H	4.62137	-0.681797	2.14235
H	4.23321	-0.777307	-2.05947
H	4.21872	1.68948	-1.36427
