18
  This energy is -0.657 and Call times are: 88911
C	-0.0376927	-0.723258	-0.872856
C	-1.1544	-0.115034	-0.379497
C	-0.707248	0.708172	0.698699
C	0.643232	0.530327	0.769029
O	1.06918	-0.340651	-0.183324
H	0.100068	-1.43897	-1.69992
H	-2.18921	-0.234128	-0.738786
H	-1.32643	1.35424	1.34158
H	1.40316	0.960026	1.44217
C	5.72412	1.13552	-0.308388
C	4.62899	0.297854	-0.320467
N	4.96176	-0.94752	0.0976404
C	6.25841	-0.882697	0.368072
N	6.76444	0.352298	0.139364
H	5.83313	2.19811	-0.57775
H	3.60471	0.569779	-0.623377
H	6.88637	-1.70993	0.736286
H	7.75965	0.65543	0.276919
