18
  This energy is -1.0397 and Call times are: 54460
C	0.0464723	-1.06613	-0.384192
C	0.0761971	-0.76723	0.946277
C	-0.000917286	0.656615	1.02895
C	-0.0709585	1.10211	-0.258292
O	-0.0432349	0.0635286	-1.13441
H	0.0819709	-2.03003	-0.917939
H	0.145478	-1.4781	1.7853
H	-0.00331362	1.2692	1.94483
H	-0.142757	2.11935	-0.677004
C	6.05609	0.193919	0.104567
C	5.41804	-0.471287	-0.920874
N	4.07848	-0.509858	-0.719354
C	3.88624	0.128989	0.426746
N	5.04796	0.572439	0.962805
H	7.12071	0.417275	0.278502
H	5.90025	-0.924086	-1.80252
H	2.91533	0.300589	0.918784
H	5.15945	1.10344	1.86107
