18
  This energy is -1.8029 and Call times are: 91223
C	0.727763	0.465609	0.734827
C	0.823269	0.661913	-0.611546
C	-0.254118	-0.0749717	-1.19151
C	-0.912891	-0.656524	-0.148346
O	-0.326875	-0.337092	1.03553
H	1.34008	0.836748	1.57302
H	1.57681	1.26511	-1.14297
H	-0.501996	-0.156702	-2.26201
H	-1.79965	-1.31069	-0.117108
C	6.29524	-0.126057	1.15208
C	7.29295	-0.731534	0.41782
N	7.2352	-0.360384	-0.884264
C	6.20559	0.472179	-0.957508
N	5.60583	0.646146	0.243998
H	6.03571	-0.18798	2.22088
H	8.05341	-1.42954	0.804258
H	5.84745	0.98253	-1.86608
H	4.77412	1.25355	0.44543
