18
  This energy is -2.0173 and Call times are: 41965
C	-0.221167	-0.207671	-1.09287
C	-0.364196	-1.15826	-0.125242
C	0.00335316	-0.525799	1.10155
C	0.338539	0.755445	0.775302
O	0.207239	0.967187	-0.560713
H	-0.389872	-0.241647	-2.18174
H	-0.695308	-2.2003	-0.261687
H	0.013875	-0.979969	2.1054
H	0.681242	1.60148	1.39339
C	3.23173	-0.968293	0.0302515
C	3.71126	-0.328568	-1.09311
N	4.44866	0.758268	-0.759157
C	4.42669	0.792656	0.566346
N	3.70587	-0.227247	1.08961
H	2.60746	-1.86841	0.146899
H	3.53836	-0.631752	-2.1386
H	4.92159	1.54275	1.20405
H	3.53982	-0.417289	2.10822
