18
  This energy is -0.7224 and Call times are: 109447
C	0.107839	1.1184	0.1548
C	-0.749973	0.358051	0.893995
C	-0.602679	-0.978319	0.411774
C	0.332139	-0.91664	-0.579529
O	0.776855	0.356232	-0.749929
H	0.331492	2.19766	0.17546
H	-1.41931	0.703585	1.69816
H	-1.13511	-1.87493	0.767721
H	0.760737	-1.69681	-1.22983
C	8.07225	-0.553397	0.365483
C	7.97448	0.755284	-0.0575316
N	6.70162	1.06197	-0.407223
C	6.01236	-0.0522086	-0.201928
N	6.79391	-1.0551	0.26389
H	8.93235	-1.1435	0.719799
H	8.79958	1.48369	-0.116677
H	4.9329	-0.188596	-0.376267
H	6.48492	-2.02925	0.502247
