18
  This energy is -0.9676 and Call times are: 187879
C	-0.980468	-0.510974	-0.252961
C	0.0544007	-1.17026	0.342655
C	1.09632	-0.205341	0.495792
C	0.606173	0.958418	-0.0197618
O	-0.66088	0.790037	-0.481537
H	-1.98277	-0.850612	-0.561649
H	0.0813535	-2.22979	0.643946
H	2.09173	-0.367978	0.939422
H	1.0536	1.96137	-0.115375
C	6.29792	-0.554282	0.521155
C	5.78571	-0.806993	-0.733805
N	4.75085	0.0215172	-1.01512
C	4.62155	0.785309	0.0612341
N	5.53124	0.477118	1.01573
H	7.12612	-1.01988	1.07868
H	6.14433	-1.57229	-1.44131
H	3.87742	1.58553	0.203172
H	5.63311	0.936365	1.9538
