18
  This energy is -1.1271 and Call times are: 72476
C	-0.741383	-0.857966	0.0254326
C	0.235287	-0.70846	0.965719
C	0.954792	0.469419	0.598253
C	0.354285	0.935719	-0.534147
O	-0.683486	0.137286	-0.898219
H	-1.52887	-1.61978	-0.0959955
H	0.429565	-1.36206	1.83125
H	1.81784	0.910645	1.12223
H	0.567916	1.8128	-1.16687
C	5.34147	0.0121823	1.14809
C	6.57569	-0.223195	0.580249
N	6.51128	-0.161068	-0.771972
C	5.24193	0.111813	-1.04199
N	4.49602	0.225887	0.0823793
H	5.01583	0.0417454	2.20005
H	7.51149	-0.436732	1.12203
H	4.80501	0.23859	-2.04561
H	3.46929	0.436919	0.132711
