18
  This energy is -0.9755 and Call times are: 55833
C	-0.547781	-0.970503	-0.210855
C	-0.22632	-0.0841807	-1.19649
C	0.446157	0.995735	-0.547123
C	0.476274	0.674001	0.778001
O	-0.126257	-0.523524	1.00139
H	-1.06863	-1.94158	-0.242233
H	-0.441195	-0.181131	-2.27283
H	0.856345	1.90256	-1.01989
H	0.891114	1.20552	1.65015
C	4.29107	0.596544	0.106271
C	4.63623	-0.568358	0.758199
N	5.87585	-0.980924	0.398127
C	6.29811	-0.0754098	-0.473864
N	5.37854	0.896203	-0.683537
H	3.37897	1.21293	0.147122
H	4.01303	-1.11853	1.48192
H	7.27226	-0.0756783	-0.988888
H	5.47551	1.7207	-1.32545
