18
  This energy is -0.8872 and Call times are: 194201
C	0.420815	-0.449951	-0.952292
C	-0.423767	-1.13718	-0.130851
C	-0.730005	-0.249946	0.945785
C	-0.0455263	0.901143	0.687218
O	0.662634	0.796656	-0.468033
H	0.912039	-0.732766	-1.89779
H	-0.793981	-2.16573	-0.269198
H	-1.38486	-0.453805	1.80816
H	0.0195998	1.85283	1.23975
C	4.91493	0.604828	0.885426
C	4.2579	-0.180753	-0.037792
N	5.1283	-0.730923	-0.918833
C	6.32076	-0.288335	-0.543615
N	6.24516	0.520632	0.539642
H	4.54243	1.19804	1.73565
H	3.17143	-0.360423	-0.0839516
H	7.28223	-0.525588	-1.02684
H	7.0471	0.993595	1.02386
