18
  This energy is -1.3185 and Call times are: 46393
C	-0.277274	-0.406425	1.02193
C	0.00882032	-1.22008	-0.0347087
C	0.305782	-0.350768	-1.12843
C	0.174942	0.917377	-0.643595
O	-0.180682	0.902171	0.668012
H	-0.559721	-0.632476	2.06326
H	0.0105624	-2.32191	-0.0431029
H	0.583547	-0.644571	-2.15342
H	0.305688	1.90089	-1.12406
C	4.91847	0.95317	0.612486
C	3.98697	0.00578171	0.98114
N	3.86995	-0.958161	0.0358179
C	4.72561	-0.6101	-0.91567
N	5.3822	0.535344	-0.614935
H	5.27237	1.86472	1.11981
H	3.39723	0.000516038	1.91229
H	4.91099	-1.15814	-1.8535
H	6.10652	1.01396	-1.20446
