18
  This energy is -0.7067 and Call times are: 49604
C	-0.95912	-0.15327	0.58566
C	0.258307	-0.540398	1.06355
C	1.20534	-0.184303	0.055365
C	0.483037	0.388994	-0.94961
O	-0.840604	0.416211	-0.642614
H	-1.97086	-0.22628	1.01728
H	0.468368	-1.02783	2.02915
H	2.29567	-0.340742	0.0838667
H	0.789004	0.811456	-1.92077
C	5.99728	1.13034	-0.125611
C	7.22161	0.641558	0.27842
N	7.21984	-0.713196	0.31236
C	5.99905	-1.06353	-0.0691648
N	5.224	0.0121577	-0.34445
H	5.63368	2.1604	-0.268136
H	8.1062	1.24216	0.546044
H	5.61978	-2.09375	-0.164227
H	4.22446	-0.00278895	-0.663755
