18
  This energy is -1.118 and Call times are: 158571
C	-0.894836	0.105617	-0.68885
C	-0.374043	1.16189	-0.000778045
C	0.72602	0.638592	0.744972
C	0.780348	-0.69126	0.446785
O	-0.202147	-1.03405	-0.427405
H	-1.74501	0.0355764	-1.38709
H	-0.728936	2.20491	-0.0167714
H	1.39363	1.19521	1.42215
H	1.4608	-1.48941	0.786178
C	4.99327	0.889292	-0.763454
C	4.13361	-0.177846	-0.610687
N	4.56356	-1.01609	0.36348
C	5.68569	-0.471047	0.813348
N	5.98753	0.679241	0.1658
H	4.96869	1.75445	-1.44495
H	3.21084	-0.357957	-1.18593
H	6.32572	-0.872563	1.61545
H	6.8203	1.29396	0.338682
