18
  This energy is -1.2884 and Call times are: 72668
C	-0.391021	-1.04879	-0.183167
C	0.407053	-0.742025	0.879542
C	0.686931	0.654177	0.768158
C	0.0351798	1.07736	-0.352782
O	-0.628296	0.0504532	-0.946307
H	-0.849492	-1.99895	-0.502938
H	0.762958	-1.42993	1.66326
H	1.30298	1.26403	1.44835
H	-0.0338694	2.06988	-0.827534
C	5.33509	-0.176603	1.03324
C	5.46715	0.921569	0.209999
N	4.70464	0.792521	-0.90285
C	4.10183	-0.381244	-0.770495
N	4.44918	-1.00437	0.380437
H	5.79355	-0.419518	2.00501
H	6.09897	1.80469	0.399083
H	3.39636	-0.832543	-1.48665
H	4.10854	-1.93984	0.712272
