18
  This energy is -1.1648 and Call times are: 114188
C	0.8311	-0.707722	0.307901
C	-0.439318	-1.13727	0.0591129
C	-1.18409	0.0289569	-0.294907
C	-0.303052	1.06823	-0.231204
O	0.932358	0.636529	0.135421
H	1.74065	-1.25185	0.611042
H	-0.814349	-2.17162	0.118897
H	-2.25139	0.0786139	-0.56418
H	-0.429787	2.14679	-0.420645
C	4.9188	0.614389	0.951833
C	4.80766	-0.75621	0.850592
N	4.41666	-1.12415	-0.393696
C	4.28573	0.0138638	-1.06184
N	4.57722	1.09063	-0.294244
H	5.20718	1.26292	1.79432
H	5.00259	-1.48619	1.65308
H	3.97917	0.11596	-2.11532
H	4.54849	2.0966	-0.591669
