18
  This energy is -1.1816 and Call times are: 109992
C	0.676537	-0.840797	0.34894
C	-0.32004	-1.03532	-0.561757
C	-0.939534	0.239036	-0.741638
C	-0.266834	1.09981	0.0750159
O	0.723398	0.457323	0.748565
H	1.4112	-1.53538	0.788333
H	-0.591669	-1.98131	-1.05716
H	-1.78698	0.477556	-1.40424
H	-0.394133	2.17836	0.264122
C	5.97484	-0.309353	0.366228
C	5.20274	-0.957505	-0.574468
N	4.01698	-0.32601	-0.752543
C	4.05333	0.709965	0.074535
N	5.21306	0.763805	0.771471
H	6.97897	-0.528526	0.762732
H	5.48002	-1.86949	-1.12787
H	3.25785	1.46044	0.209515
H	5.4809	1.48554	1.48465
