18
  This energy is -1.5051 and Call times are: 71840
C	-0.484387	-0.209237	-1.00399
C	-0.71175	-0.987244	0.0930017
C	0.0629991	-0.413288	1.14678
C	0.695407	0.664789	0.600721
O	0.37259	0.804353	-0.712033
H	-0.866966	-0.270869	-2.03602
H	-1.36	-1.87614	0.154006
H	0.134869	-0.768699	2.18727
H	1.39081	1.40176	1.03492
C	4.8325	0.114854	-1.14033
C	6.05466	-0.238257	-0.608556
N	6.00632	-0.274732	0.74527
C	4.75892	0.0544992	1.05221
N	4.01157	0.298941	-0.0502018
H	4.49995	0.243864	-2.18259
H	6.97045	-0.467359	-1.17749
H	4.33972	0.131641	2.06836
H	2.99958	0.575923	-0.0706127
