18
  This energy is -1.8077 and Call times are: 13070
C	0.279035	1.00566	0.44405
C	0.32047	-0.149392	1.16828
C	-0.0943118	-1.18514	0.276479
C	-0.352598	-0.57158	-0.913987
O	-0.129887	0.766447	-0.829751
H	0.513072	2.04799	0.716143
H	0.613703	-0.260866	2.22454
H	-0.186615	-2.25933	0.503819
H	-0.695688	-0.970393	-1.88274
C	4.66188	-0.980521	0.328579
C	4.76928	0.267414	0.905006
N	3.97902	1.16787	0.271611
C	3.38363	0.48116	-0.694083
N	3.7623	-0.818896	-0.701385
H	5.1458	-1.94016	0.570361
H	5.40283	0.534194	1.76657
H	2.66158	0.881132	-1.42408
H	3.4333	-1.56213	-1.36517
