18
  This energy is -0.8036 and Call times are: 33208
C	-0.646005	0.904064	-0.227481
C	-0.967259	0.00272619	0.744507
C	0.0723346	-0.976616	0.728614
C	0.937097	-0.587286	-0.251683
O	0.513973	0.559324	-0.846042
H	-1.15348	1.8202	-0.571594
H	-1.84796	0.0252438	1.40629
H	0.157932	-1.86439	1.37563
H	1.87611	-1.03381	-0.61791
C	6.18619	-0.773707	-0.0336383
C	4.97249	-0.932743	0.601006
N	4.18728	0.159159	0.434556
C	4.91111	0.992411	-0.300553
N	6.12432	0.475945	-0.60873
H	7.0604	-1.43917	-0.114043
H	4.64932	-1.81579	1.17602
H	4.60104	1.99335	-0.641454
H	6.87482	0.939202	-1.17741
