18
  This energy is -1.0062 and Call times are: 10012
C	-0.816526	-0.760921	-0.201706
C	0.317433	-1.0722	0.489391
C	1.08934	0.128694	0.535408
C	0.358943	1.06782	-0.131631
O	-0.807938	0.541876	-0.588562
H	-1.69272	-1.36891	-0.480799
H	0.583618	-2.04945	0.923248
H	2.07301	0.267675	1.01204
H	0.556786	2.13076	-0.346697
C	5.48448	-1.0461	-0.378086
C	5.28789	-0.660544	0.931053
N	4.83719	0.615512	1.0022
C	4.75449	1.02005	-0.258015
N	5.13389	0.0542874	-1.12804
H	5.83729	-1.99403	-0.814546
H	5.46318	-1.28025	1.82553
H	4.42224	2.01351	-0.599883
H	5.15665	0.129431	-2.17451
