18
  This energy is -0.8698 and Call times are: 211286
C	0.305122	-1.08897	-0.0862481
C	0.973426	-0.0899042	-0.730922
C	0.300566	1.12023	-0.380293
C	-0.719514	0.753837	0.447694
O	-0.731679	-0.591739	0.638193
H	0.466071	-2.17928	-0.0622669
H	1.85208	-0.194612	-1.38751
H	0.553798	2.14034	-0.710971
H	-1.49478	1.34732	0.959541
C	6.15118	0.872596	-0.446799
C	4.83404	0.589283	-0.740085
N	4.39887	-0.487902	-0.0423653
C	5.44208	-0.871386	0.681016
N	6.52297	-0.0828525	0.472483
H	6.82768	1.66023	-0.814927
H	4.18994	1.14282	-1.44263
H	5.46908	-1.72302	1.37974
H	7.46479	-0.180678	0.924891
