18
  This energy is -1.3963 and Call times are: 104449
C	1.01842	-0.208937	0.453401
C	0.506278	-0.95492	-0.567185
C	-0.774073	-0.392666	-0.858203
C	-0.931311	0.647267	0.0102363
O	0.1538	0.773945	0.818628
H	1.97372	-0.275193	0.999525
H	0.982354	-1.81486	-1.06513
H	-1.48807	-0.729996	-1.62665
H	-1.75749	1.36333	0.151437
C	5.23746	-1.06453	0.497951
C	6.27695	-0.164154	0.597573
N	6.01431	0.964991	-0.104254
C	4.81644	0.765862	-0.637244
N	4.30603	-0.443176	-0.303633
H	5.09925	-2.06993	0.926457
H	7.21174	-0.309049	1.16328
H	4.26679	1.47242	-1.2798
H	3.37764	-0.832975	-0.599274
