18
  This energy is -1.5514 and Call times are: 121767
C	0.156932	-0.0125735	-1.12322
C	0.444601	1.07902	-0.35768
C	0.118264	0.712801	0.983777
C	-0.340015	-0.570253	0.919566
O	-0.323264	-1.02908	-0.359579
H	0.248257	-0.189804	-2.20742
H	0.846303	2.04519	-0.70299
H	0.21664	1.33858	1.88534
H	-0.702755	-1.25704	1.70187
C	4.04799	-1.06322	0.437211
C	3.53962	-0.500226	-0.7142
N	4.04751	0.739653	-0.917325
C	4.86784	0.945068	0.104189
N	4.90295	-0.112715	0.948849
H	3.86787	-2.04039	0.912845
H	2.81547	-0.96646	-1.40201
H	5.46743	1.85225	0.282339
H	5.47288	-0.193402	1.82631
