18
  This energy is -0.9242 and Call times are: 196884
C	0.369729	0.566381	0.910447
C	0.0323608	-0.754297	0.959102
C	-0.379154	-1.10172	-0.363801
C	-0.256928	0.0373264	-1.10408
O	0.19917	1.06595	-0.341893
H	0.739632	1.25557	1.68726
H	0.0695554	-1.41733	1.83837
H	-0.724459	-2.08767	-0.714166
H	-0.459607	0.243113	-2.16795
C	6.64237	1.13843	0.295435
C	5.63729	0.242933	0.593844
N	5.91553	-0.987062	0.0976553
C	7.08877	-0.855125	-0.506278
N	7.56855	0.40783	-0.414922
H	6.76015	2.20821	0.530468
H	4.71635	0.462314	1.15828
H	7.64141	-1.65111	-1.0309
H	8.47363	0.762843	-0.809956
