18
  This energy is -0.639 and Call times are: 98054
C	0.931646	-0.646266	0.0278858
C	0.36355	-0.233789	-1.14152
C	-0.772654	0.547899	-0.769871
C	-0.798576	0.544095	0.593833
O	0.234957	-0.180399	1.09775
H	1.82074	-1.26582	0.230167
H	0.709862	-0.45754	-2.16333
H	-1.48244	1.05072	-1.44624
H	-1.4904	1.01218	1.31323
C	6.74889	-0.742638	-0.336104
C	6.83791	0.630459	-0.247645
N	5.6684	1.16977	0.174153
C	4.85694	0.135177	0.346709
N	5.46166	-1.04005	0.0521889
H	7.48588	-1.50379	-0.637826
H	7.72505	1.24166	-0.480616
H	3.80995	0.181704	0.687124
H	5.03183	-1.99572	0.108838
