18
  This energy is -1.6479 and Call times are: 19508
C	-0.316723	-0.239716	1.06237
C	-0.598012	0.955453	0.468379
C	-0.0447471	0.878546	-0.846193
C	0.525794	-0.35683	-0.939475
O	0.369149	-1.0533	0.216986
H	-0.54666	-0.62839	2.06801
H	-1.14067	1.80591	0.911488
H	-0.0731494	1.65752	-1.62497
H	1.06567	-0.852513	-1.76293
C	3.97773	-0.730842	0.573834
C	5.20419	-0.271659	1.00523
N	5.76504	0.556547	0.090883
C	4.88986	0.610954	-0.903959
N	3.79539	-0.148304	-0.660504
H	3.24619	-1.40833	1.04224
H	5.69442	-0.523121	1.95984
H	5.00041	1.19129	-1.83413
H	2.96596	-0.270022	-1.29176
