18
  This energy is -0.7105 and Call times are: 30817
C	-0.768626	-0.129251	-0.823959
C	-1.07651	0.43134	0.380749
C	0.134245	0.419379	1.13841
C	1.07512	-0.147463	0.32982
O	0.541159	-0.488584	-0.872486
H	-1.38377	-0.326039	-1.71734
H	-2.05778	0.81481	0.70348
H	0.278359	0.791732	2.16539
H	2.14462	-0.360893	0.490657
C	5.94422	0.597228	1.00207
C	7.12696	0.0703441	0.528091
N	6.94176	-0.555882	-0.659365
C	5.64903	-0.418015	-0.921056
N	5.00404	0.269971	0.050671
H	5.71277	1.16302	1.9185
H	8.11062	0.130838	1.02166
H	5.12269	-0.801381	-1.81
H	3.98241	0.508621	0.0747399
