18
  This energy is -0.6954 and Call times are: 72444
C	0.611377	0.311664	0.903042
C	1.1878	-0.0793552	-0.269652
C	0.108051	-0.388706	-1.15201
C	-1.03288	-0.159417	-0.440618
O	-0.744235	0.268817	0.816487
H	1.05013	0.639729	1.85966
H	2.26527	-0.143511	-0.491119
H	0.181893	-0.740401	-2.19362
H	-2.0965	-0.261783	-0.71171
C	5.90059	-0.963294	0.455789
C	7.24848	-0.737562	0.273077
N	7.46961	0.480604	-0.277997
C	6.26349	1.00858	-0.436553
N	5.28411	0.176847	-0.00920674
H	5.35466	-1.82582	0.869988
H	8.06537	-1.43185	0.529009
H	6.04042	2.00089	-0.860586
H	4.25183	0.364717	-0.0284322
