18
  This energy is -1.5249 and Call times are: 88975
C	0.572475	-0.871885	0.445523
C	-0.58794	-1.03973	-0.251356
C	-1.00051	0.269824	-0.645023
C	-0.0557971	1.12231	-0.153957
O	0.912281	0.442171	0.514808
H	1.24248	-1.59732	0.935515
H	-1.10183	-1.99035	-0.466596
H	-1.89789	0.536421	-1.22617
H	0.0401522	2.21899	-0.211713
C	3.97646	0.919965	-0.658848
C	3.89536	0.815764	0.713635
N	4.35682	-0.384747	1.14064
C	4.72281	-1.02288	0.037258
N	4.51335	-0.278163	-1.0741
H	3.69936	1.73476	-1.3465
H	3.51214	1.58531	1.40341
H	5.15012	-2.03729	-0.0139256
H	4.72047	-0.559804	-2.06356
