18
  This energy is -2.4735 and Call times are: 159834
C	-0.339078	0.788917	-0.74097
C	-0.617711	0.870745	0.591713
C	-0.0333187	-0.289536	1.1853
C	0.550839	-0.977968	0.162958
O	0.373899	-0.3338	-1.02058
H	-0.588677	1.456	-1.58237
H	-1.17851	1.66817	1.10524
H	-0.0509303	-0.570583	2.25057
H	1.11436	-1.92531	0.14748
C	3.55708	0.837929	-0.519247
C	4.78955	0.370581	-0.923895
N	5.24186	-0.59869	-0.0917655
C	4.29359	-0.732144	0.825625
N	3.25668	0.112035	0.611695
H	2.89461	1.60994	-0.941947
H	5.36051	0.71541	-1.80136
H	4.30766	-1.43293	1.67588
H	2.38919	0.197331	1.19602
