18
  This energy is -1.3865 and Call times are: 72028
C	-0.170864	0.905933	0.660676
C	-0.877681	-0.250958	0.810298
C	-0.38382	-1.14302	-0.189921
C	0.581193	-0.452511	-0.862467
O	0.724505	0.80059	-0.356295
H	-0.210295	1.86263	1.20696
H	-1.6676	-0.455618	1.55074
H	-0.714693	-2.17685	-0.379182
H	1.22892	-0.737031	-1.70789
C	4.52974	-0.638696	-0.869489
C	5.77055	-0.811497	-0.293597
N	5.98825	0.103712	0.681858
C	4.88667	0.841479	0.711
N	3.9771	0.433624	-0.205477
H	4.01795	-1.18471	-1.67788
H	6.51262	-1.58015	-0.564462
H	4.69364	1.69263	1.38369
H	3.03114	0.854148	-0.377452
