18
  This energy is -1.765 and Call times are: 211350
C	-0.324471	-0.9026	-0.605337
C	-0.380858	-0.87831	0.757236
C	0.104351	0.407661	1.14578
C	0.41441	1.05569	-0.0136585
O	0.158803	0.270303	-1.09294
H	-0.595365	-1.68378	-1.33447
H	-0.729189	-1.68504	1.42203
H	0.20702	0.796236	2.17172
H	0.818637	2.06381	-0.202167
C	4.5862	0.849452	0.809996
C	5.33475	-0.306375	0.740139
N	4.96941	-1.06155	-0.324166
C	3.99791	-0.376819	-0.912338
N	3.72997	0.782726	-0.266386
H	4.60171	1.68681	1.52563
H	6.13189	-0.608923	1.43862
H	3.44848	-0.678561	-1.8186
H	3.0076	1.49518	-0.534449
