18
  This energy is -1.0073 and Call times are: 47108
C	-0.0177693	1.07098	-0.372953
C	-0.161682	0.754324	0.945908
C	-0.0855386	-0.670221	1.01655
C	0.0981827	-1.09833	-0.265378
O	0.141984	-0.048302	-1.12708
H	-0.0111374	2.04176	-0.895249
H	-0.306892	1.45374	1.78485
H	-0.159974	-1.29491	1.92116
H	0.210761	-2.10967	-0.689382
C	6.06136	-0.50471	0.0621781
C	5.77481	0.837972	0.189604
N	4.44525	1.06795	0.063627
C	3.90901	-0.127511	-0.141172
N	4.84227	-1.10859	-0.150725
H	7.01473	-1.05486	0.106459
H	6.5036	1.64488	0.370182
H	2.83835	-0.341261	-0.290306
H	4.67	-2.13392	-0.293174
