18
  This energy is -0.5377 and Call times are: 78809
C	-0.930073	0.641221	0.100997
C	-0.790097	-0.550014	0.750413
C	0.494554	-1.05034	0.376961
C	1.0262	-0.120674	-0.467699
O	0.169737	0.919112	-0.647472
H	-1.75255	1.37514	0.0889976
H	-1.51842	-1.02841	1.42478
H	0.960302	-1.99378	0.704209
H	1.99119	-0.0829028	-0.99932
C	5.56088	0.0701816	0.913162
C	5.29521	0.415818	-0.394928
N	6.37623	0.206334	-1.18488
C	7.30899	-0.267458	-0.369951
N	6.86626	-0.368117	0.905765
H	4.93428	0.103971	1.81858
H	4.34288	0.812592	-0.782865
H	8.33334	-0.556711	-0.655031
H	7.4132	-0.714121	1.73184
