18
  This energy is -0.9218 and Call times are: 1587
C	0.390662	0.903069	-0.564137
C	-0.607595	0.995289	0.360715
C	-0.816492	-0.332367	0.844252
C	0.0725521	-1.1187	0.172197
O	0.817881	-0.380729	-0.692036
H	0.87934	1.66689	-1.19105
H	-1.14313	1.9068	0.671272
H	-1.54619	-0.654903	1.60425
H	0.270571	-2.20218	0.218075
C	5.63939	-0.229686	-1.02049
C	4.2799	-0.1845	-0.794907
N	4.00896	0.108837	0.500104
C	5.19585	0.245112	1.07572
N	6.21074	0.0506408	0.200645
H	6.22129	-0.434652	-1.93313
H	3.48968	-0.358302	-1.54337
H	5.37908	0.486891	2.13507
H	7.23727	0.103363	0.412107
