18
  This energy is -0.6939 and Call times are: 20758
C	-0.314479	-0.310921	-1.04443
C	0.971738	0.024164	-0.738262
C	0.970007	0.352139	0.651899
C	-0.317114	0.188521	1.07252
O	-1.11518	-0.216118	0.0495998
H	-0.781431	-0.629821	-1.99074
H	1.83512	0.0389034	-1.4227
H	1.83178	0.671729	1.25961
H	-0.786474	0.325967	2.06048
C	5.16635	0.176953	0.694313
C	6.12299	-0.806857	0.828815
N	7.05764	-0.716413	-0.148302
C	6.68226	0.319566	-0.886174
N	5.5475	0.892032	-0.419047
H	4.27116	0.411001	1.29215
H	6.15555	-1.58031	1.61339
H	7.20191	0.701931	-1.77948
H	5.05239	1.7224	-0.827228
