18
  This energy is -1.0629 and Call times are: 160219
C	0.620475	-0.796428	0.516831
C	1.05186	0.490097	0.378518
C	0.010117	1.17948	-0.314041
C	-0.965906	0.253365	-0.537803
O	-0.609917	-0.958869	-0.0370302
H	1.08917	-1.67857	0.983099
H	2.00777	0.91138	0.729024
H	-0.00226994	2.24153	-0.607263
H	-1.94669	0.330431	-1.03516
C	4.7748	0.573093	1.00297
C	4.8106	1.10974	-0.26663
N	5.10104	0.161294	-1.19
C	5.24488	-0.959476	-0.495874
N	5.05799	-0.763459	0.830867
H	4.57452	1.0324	1.98402
H	4.63206	2.16428	-0.532916
H	5.48703	-1.95185	-0.909139
H	5.11749	-1.49101	1.58478
