18
  This energy is -1.1326 and Call times are: 143923
C	0.0414282	-1.05404	0.416742
C	-0.802905	-0.104915	0.913359
C	-0.565108	1.07271	0.140848
C	0.403546	0.73925	-0.759645
O	0.785676	-0.555823	-0.605452
H	0.205821	-2.10665	0.700009
H	-1.52113	-0.222292	1.74069
H	-1.0623	2.04992	0.250134
H	0.898811	1.32519	-1.55125
C	4.60654	1.15355	-0.130345
C	3.94054	0.293328	0.71678
N	4.42238	-0.968732	0.60933
C	5.38364	-0.891753	-0.300991
N	5.53339	0.366971	-0.777204
H	4.49038	2.23375	-0.312569
H	3.121	0.560721	1.40358
H	6.00915	-1.72657	-0.656011
H	6.22397	0.683409	-1.50123
