18
  This energy is -1.0453 and Call times are: 79355
C	-0.282486	0.904061	-0.62392
C	0.805814	0.132236	-0.90723
C	0.827867	-0.892691	0.0873335
C	-0.248903	-0.656707	0.890609
O	-0.938255	0.436744	0.470883
H	-0.69171	1.80045	-1.11816
H	1.52129	0.270753	-1.73367
H	1.56384	-1.70684	0.185334
H	-0.627442	-1.1864	1.7802
C	6.20349	-0.847454	-0.180233
C	7.46004	-0.760006	-0.741104
N	8.11055	0.348729	-0.312084
C	7.26078	0.946836	0.511806
N	6.09657	0.264617	0.624785
H	5.40446	-1.59734	-0.293224
H	7.90891	-1.47706	-1.44764
H	7.4402	1.8864	1.05884
H	5.26996	0.531897	1.21346
