18
  This energy is -0.6433 and Call times are: 166409
C	-1.10054	0.228169	0.152142
C	-0.16638	0.458495	1.11892
C	1.0832	0.0501748	0.560403
C	0.802328	-0.393625	-0.698377
O	-0.526547	-0.292139	-0.96447
H	-2.19092	0.389597	0.135818
H	-0.339843	0.874225	2.12449
H	2.07121	0.0863736	1.04683
H	1.45061	-0.800334	-1.49183
C	5.21313	0.577623	0.278459
C	6.33199	0.422039	1.06908
N	7.28401	-0.301669	0.431565
C	6.75775	-0.593943	-0.750067
N	5.51036	-0.0861987	-0.890808
H	4.25829	1.09644	0.459121
H	6.46937	0.819016	2.0881
H	7.24249	-1.17684	-1.54975
H	4.88819	-0.180286	-1.73063
