18
  This energy is -1.2636 and Call times are: 119963
C	-0.388967	1.06487	0.0339004
C	-0.566427	0.256597	-1.05034
C	0.0539028	-0.986139	-0.717295
C	0.555676	-0.827575	0.541058
O	0.294353	0.41899	1.01519
H	-0.696961	2.10534	0.22838
H	-1.0824	0.510072	-1.99035
H	0.114522	-1.88778	-1.34775
H	1.11081	-1.51625	1.19893
C	4.97279	0.958936	-0.660059
C	5.81845	0.455788	0.305783
N	5.30446	-0.664025	0.870007
C	4.14435	-0.854853	0.256526
N	3.89889	0.0971232	-0.674646
H	5.05641	1.8399	-1.31615
H	6.79024	0.880715	0.605621
H	3.43539	-1.67583	0.450415
H	3.0519	0.165652	-1.2904
