18
  This energy is -1.1149 and Call times are: 152914
C	-0.97705	0.454568	0.353753
C	-0.591969	-0.807885	0.697698
C	0.673778	-1.01544	0.0692676
C	0.95044	0.138506	-0.603225
O	-0.0469843	1.04717	-0.440483
H	-1.87736	1.03857	0.606037
H	-1.14388	-1.5214	1.33046
H	1.29837	-1.92187	0.117913
H	1.8113	0.433716	-1.22534
C	4.50137	-0.812089	0.296303
C	5.43587	-0.229214	1.12582
N	6.19661	0.666841	0.451375
C	5.7358	0.639955	-0.791828
N	4.7134	-0.236062	-0.936346
H	3.72633	-1.57072	0.489486
H	5.57483	-0.439172	2.19888
H	6.11066	1.24127	-1.6357
H	4.18323	-0.437985	-1.81919
