18
  This energy is -0.8871 and Call times are: 10045
C	-0.458822	1.03722	0.00765196
C	-1.09196	-0.0374972	-0.544161
C	-0.211038	-1.14678	-0.360892
C	0.882648	-0.652008	0.286735
O	0.748336	0.680154	0.51979
H	-0.757525	2.09448	0.0983607
H	-2.08019	-0.0480491	-1.03138
H	-0.38046	-2.18841	-0.677769
H	1.80966	-1.13821	0.632445
C	5.16945	0.920515	-0.682014
C	5.30556	-0.413893	-1.00135
N	4.89838	-1.20494	0.0208864
C	4.51114	-0.364474	0.970772
N	4.65505	0.928545	0.595295
H	5.39472	1.83449	-1.25424
H	5.69027	-0.820046	-1.95102
H	4.11419	-0.642392	1.96043
H	4.41963	1.77576	1.16807
