18
  This energy is -0.8554 and Call times are: 125481
C	0.442775	0.200744	1.02472
C	0.4008	-1.04864	0.479157
C	-0.219459	-0.896758	-0.798468
C	-0.50176	0.432039	-0.920858
O	-0.104147	1.11728	0.183386
H	0.830569	0.564114	1.99055
H	0.769619	-1.98343	0.931083
H	-0.427167	-1.69037	-1.53409
H	-0.976996	1.00674	-1.73272
C	6.34037	0.500879	0.227709
C	6.12441	-0.730842	-0.353127
N	4.7995	-0.992676	-0.465202
C	4.19581	0.0725595	0.0441688
N	5.08169	1.00131	0.475694
H	7.26967	1.03877	0.473917
H	6.90086	-1.43528	-0.693335
H	3.10743	0.224307	0.125662
H	4.85325	1.92637	0.915398
