18
  This energy is -0.8089 and Call times are: 38190
C	-0.07846	1.11669	-0.182356
C	0.708662	0.59044	0.799416
C	0.544116	-0.825885	0.715361
C	-0.329032	-1.0401	-0.310356
O	-0.719495	0.13522	-0.869966
H	-0.26603	2.15879	-0.489092
H	1.34165	1.14408	1.51139
H	1.02416	-1.58871	1.3492
H	-0.745553	-1.96868	-0.734048
C	5.03069	-0.554159	0.926146
C	4.59047	0.620874	0.354614
N	5.36741	0.973151	-0.698369
C	6.28613	0.0202841	-0.779769
N	6.12594	-0.923668	0.177772
H	4.65461	-1.1342	1.78385
H	3.72617	1.22077	0.683177
H	7.09925	-0.0351302	-1.52139
H	6.72244	-1.77485	0.322511
