18
  This energy is -1.0024 and Call times are: 201679
C	-0.214448	0.61971	-0.925404
C	0.494849	-0.544294	-0.974041
C	0.552734	-1.02335	0.370307
C	-0.1263	-0.109801	1.12178
O	-0.601648	0.900329	0.346737
H	-0.507292	1.33095	-1.71511
H	0.933312	-1.01804	-1.86702
H	1.045	-1.94238	0.726892
H	-0.338602	-0.0651204	2.20261
C	5.13042	1.13732	-0.250661
C	4.166	0.211776	0.0875601
N	4.71527	-1.00672	0.311351
C	6.01551	-0.83773	0.112719
N	6.3163	0.437771	-0.228178
H	5.05914	2.20855	-0.497525
H	3.08368	0.40138	0.174116
H	6.79188	-1.61442	0.203465
H	7.27099	0.820819	-0.4358
