18
  This energy is -1.7345 and Call times are: 172780
C	0.614801	0.882181	0.360799
C	0.647024	-0.332645	0.980099
C	-0.246076	-1.17025	0.244637
C	-0.745218	-0.393333	-0.75917
O	-0.230273	0.863143	-0.70339
H	1.13946	1.82725	0.577177
H	1.2402	-0.610997	1.86596
H	-0.483029	-2.22715	0.446894
H	-1.46322	-0.613706	-1.56612
C	4.75732	0.690227	0.883745
C	5.07788	0.822032	-0.4508
N	4.49122	-0.1487	-1.19243
C	3.80929	-0.879939	-0.321286
N	3.93775	-0.41471	0.943883
H	5.04481	1.2847	1.7655
H	5.72197	1.60017	-0.891823
H	3.19896	-1.76684	-0.556082
H	3.497	-0.81874	1.8063
