18
  This energy is -0.4278 and Call times are: 192075
C	-0.668981	-0.400879	-0.823506
C	-0.856225	-0.719123	0.489519
C	0.169148	-0.032152	1.20841
C	0.892466	0.645247	0.271221
O	0.394602	0.431472	-0.975151
H	-1.21668	-0.697673	-1.73301
H	-1.63798	-1.37213	0.909682
H	0.340469	-0.0466221	2.29677
H	1.77147	1.30431	0.361979
C	6.39733	0.814436	0.843986
C	5.26106	0.491357	0.13289
N	5.50925	-0.494476	-0.763239
C	6.7946	-0.781887	-0.608664
N	7.37453	-0.0197904	0.348668
H	6.57382	1.55428	1.64087
H	4.26662	0.951928	0.25039
H	7.36152	-1.54162	-1.17049
H	8.37747	-0.0572687	0.655192
