18
  This energy is -0.6955 and Call times are: 113369
C	-0.396982	0.150992	1.05167
C	0.660901	-0.666179	0.780579
C	0.857873	-0.595082	-0.632313
C	-0.0970311	0.259259	-1.0999
O	-0.872262	0.724367	-0.085152
H	-0.900193	0.40562	1.99887
H	1.24404	-1.25951	1.50308
H	1.62409	-1.12233	-1.22309
H	-0.326175	0.612812	-2.11859
C	6.90654	0.18242	-0.581969
C	6.76822	-0.135732	0.752494
N	5.46284	-0.274586	1.08895
C	4.79388	-0.0434543	-0.0325181
N	5.61951	0.236705	-1.06858
H	7.79996	0.367853	-1.19918
H	7.58694	-0.267573	1.47855
H	3.69857	-0.0663474	-0.150909
H	5.33368	0.453892	-2.05468
