18
  This energy is -1.0074 and Call times are: 42130
C	0.126148	0.695062	0.887342
C	-1.00855	0.674995	0.13075
C	-0.790048	-0.314808	-0.875562
C	0.458884	-0.81222	-0.645077
O	1.03297	-0.206863	0.42776
H	0.407779	1.29683	1.76701
H	-1.90908	1.29501	0.267564
H	-1.48749	-0.61481	-1.67411
H	1.04454	-1.58767	-1.16559
C	5.69384	1.10904	0.00294721
C	6.45607	-0.0398072	0.0198022
N	5.6731	-1.14587	0.0102248
C	4.42986	-0.684941	-0.0124854
N	4.38934	0.668544	-0.0177548
H	5.97792	2.17339	0.00417881
H	7.55695	-0.0904261	0.0387019
H	3.51213	-1.29472	-0.026035
H	3.52825	1.26814	-0.0344332
