18
  This energy is -1.3977 and Call times are: 99547
C	0.454392	-0.918285	0.486499
C	-0.657	-0.302986	0.983076
C	-0.917474	0.797441	0.110533
C	0.0577386	0.757453	-0.842218
O	0.904251	-0.283975	-0.628081
H	1.01521	-1.80307	0.829858
H	-1.23537	-0.594755	1.8744
H	-1.73795	1.52851	0.190833
H	0.256133	1.40381	-1.71292
C	5.43548	-0.38107	1.08162
C	5.45563	-1.1282	-0.0770589
N	5.80409	-0.367403	-1.14302
C	5.99937	0.84708	-0.647522
N	5.7896	0.89056	0.689526
H	5.20198	-0.655169	2.12272
H	5.22499	-2.20257	-0.162984
H	6.29692	1.74081	-1.21931
H	5.87958	1.73254	1.30939
