18
  This energy is -0.9274 and Call times are: 204325
C	-0.423596	1.0442	0.128868
C	0.229446	0.391821	1.13301
C	0.607096	-0.876145	0.59472
C	0.151493	-0.886667	-0.690849
O	-0.480443	0.278157	-0.992271
H	-0.888018	2.0431	0.086801
H	0.425549	0.765955	2.15069
H	1.15422	-1.68058	1.11206
H	0.212533	-1.65202	-1.4819
C	6.19463	0.0801361	-0.4248
C	5.264	1.0939	-0.33907
N	4.10453	0.648269	0.202732
C	4.31505	-0.637064	0.452172
N	5.56041	-1.02772	0.0915406
H	7.22884	0.0690469	-0.804053
H	5.4084	2.13889	-0.658448
H	3.59139	-1.33831	0.898043
H	5.96564	-1.99101	0.187068
