18
  This energy is -0.6479 and Call times are: 209776
C	-0.933965	0.636307	-0.0960376
C	0.314221	1.12981	-0.33866
C	1.21435	0.0434892	-0.115515
C	0.436765	-1.01795	0.243768
O	-0.87789	-0.673847	0.260841
H	-1.92873	1.10918	-0.141777
H	0.574921	2.15588	-0.644121
H	2.31172	0.0598372	-0.213566
H	0.694447	-2.05658	0.508511
C	7.34879	0.218338	0.13307
C	6.45285	0.936911	-0.629878
N	5.20909	0.404143	-0.554155
C	5.33297	-0.640971	0.2527
N	6.60398	-0.79526	0.693492
H	8.42768	0.352078	0.310929
H	6.68159	1.83023	-1.23362
H	4.52512	-1.32711	0.554092
H	6.95516	-1.5443	1.33915
