18
  This energy is -0.6648 and Call times are: 6234
C	-0.794988	0.808866	-0.0113819
C	0.0156848	0.566374	-1.08114
C	0.870504	-0.508353	-0.68825
C	0.506737	-0.827739	0.586913
O	-0.508956	-0.033323	1.0162
H	-1.60335	1.54257	0.141886
H	0.0120797	1.09163	-2.04974
H	1.66145	-0.982054	-1.29167
H	0.887775	-1.58942	1.28685
C	6.20341	-1.05053	-0.3446
C	4.95524	-0.520748	-0.594716
N	4.82977	0.713165	-0.0486154
C	5.99566	0.94798	0.538055
N	6.85775	-0.0853788	0.387872
H	6.65717	-2.01391	-0.626605
H	4.14299	-1.00675	-1.15943
H	6.27135	1.86021	1.09129
H	7.83787	-0.140788	0.758746
