18
  This energy is -0.8854 and Call times are: 27129
C	0.561381	-0.704596	0.689055
C	0.111751	-1.08897	-0.539955
C	-0.535116	0.056877	-1.09558
C	-0.423673	1.0403	-0.157062
O	0.243147	0.592749	0.939322
H	1.11348	-1.25292	1.46994
H	0.22431	-2.07998	-1.00828
H	-1.02382	0.130921	-2.08036
H	-0.771625	2.08631	-0.149283
C	4.57687	-1.03214	-0.375167
C	4.28411	-0.401327	0.815426
N	4.94987	0.774207	0.922178
C	5.65298	0.872293	-0.197929
N	5.46218	-0.192103	-1.01294
H	4.22946	-1.98751	-0.799557
H	3.60443	-0.773354	1.59931
H	6.32368	1.70246	-0.472182
H	5.9044	-0.34778	-1.95181
