18
  This energy is -1.8421 and Call times are: 94023
C	0.420021	0.867607	0.597697
C	0.0506041	-0.30934	1.17968
C	-0.421758	-1.13938	0.117589
C	-0.299295	-0.396382	-1.01966
O	0.213161	0.832027	-0.745045
H	0.838128	1.79435	1.02382
H	0.105256	-0.567142	2.24956
H	-0.806163	-2.16869	0.200268
H	-0.538432	-0.624552	-2.07133
C	4.96197	0.34839	-0.847957
C	5.90502	1.12036	-0.20308
N	6.58153	0.395163	0.720461
C	6.06016	-0.82207	0.648796
N	5.07996	-0.901421	-0.28206
H	4.23936	0.591849	-1.64301
H	6.1094	2.18761	-0.387645
H	6.35897	-1.69243	1.25495
H	4.5171	-1.7528	-0.52618
