18
  This energy is -0.7598 and Call times are: 75861
C	-0.962214	-0.557186	0.223804
C	0.143451	-0.6617	1.01561
C	1.13427	0.174214	0.415903
C	0.54661	0.715751	-0.689434
O	-0.733819	0.279973	-0.822146
H	-1.95958	-1.0212	0.295882
H	0.250569	-1.26674	1.93024
H	2.16234	0.346147	0.773108
H	0.927862	1.41483	-1.45179
C	5.62287	1.06166	-0.47603
C	4.79808	-0.0386337	-0.577192
N	5.31094	-1.09726	0.0957151
C	6.44955	-0.655392	0.612365
N	6.68243	0.640496	0.29608
H	5.53377	2.08057	-0.885197
H	3.84214	-0.0875939	-1.12366
H	7.1511	-1.2388	1.23019
H	7.51205	1.21495	0.584145
