18
  This energy is -0.9485 and Call times are: 69006
C	0.370808	0.125351	-1.06451
C	0.00473849	1.18592	-0.288906
C	-0.39822	0.632807	0.964813
C	-0.24282	-0.716929	0.844661
O	0.225984	-1.04453	-0.388186
H	0.746015	0.0716543	-2.09969
H	0.0172163	2.2509	-0.571312
H	-0.760289	1.18368	1.84773
H	-0.42829	-1.54022	1.55391
C	5.28399	0.834742	-0.673833
C	3.98346	0.37976	-0.72631
N	3.76725	-0.589355	0.195957
C	4.92922	-0.735033	0.818217
N	5.87581	0.10122	0.330105
H	5.8126	1.60297	-1.2603
H	3.19727	0.733402	-1.41311
H	5.14197	-1.4395	1.6384
H	6.87094	0.176475	0.654605
