18
  This energy is -0.9169 and Call times are: 53261
C	-0.489136	0.454827	0.916668
C	0.116199	-0.767175	0.942246
C	0.604641	-0.989338	-0.381456
C	0.254667	0.116515	-1.09908
O	-0.413992	1.0088	-0.322073
H	-1.00274	1.03288	1.70236
H	0.209414	-1.44422	1.80655
H	1.15186	-1.87288	-0.747523
H	0.420681	0.385453	-2.15518
C	4.39566	-0.657586	-0.367202
C	4.51615	0.712455	-0.465255
N	5.69025	1.13858	0.0604897
C	6.29584	0.037086	0.483093
N	5.55572	-1.07222	0.248031
H	3.59325	-1.34394	-0.68122
H	3.77693	1.40109	-0.905934
H	7.2822	-0.0141122	0.971666
H	5.81601	-2.05996	0.488612
