18
  This energy is -1.426 and Call times are: 27611
C	-0.509778	-0.522425	0.868101
C	-1.18827	-0.128642	-0.247673
C	-0.218306	0.482012	-1.09995
C	0.967298	0.407484	-0.429758
O	0.807827	-0.202947	0.773968
H	-0.845459	-1.03245	1.78595
H	-2.26391	-0.255465	-0.45023
H	-0.392359	0.922788	-2.0947
H	1.98123	0.747118	-0.697775
C	4.57619	0.244568	1.14453
C	4.19478	-0.91297	0.499719
N	4.4882	-0.855385	-0.822059
C	5.04951	0.333355	-0.996579
N	5.12539	1.03451	0.159366
H	4.49825	0.551823	2.19955
H	3.71313	-1.78864	0.964547
H	5.42297	0.740671	-1.94991
H	5.52622	1.9966	0.281801
