18
  This energy is -1.2164 and Call times are: 94949
C	0.848193	-0.306113	0.687943
C	0.510153	-1.02629	-0.419963
C	-0.587344	-0.333747	-1.01663
C	-0.823085	0.748492	-0.220662
O	0.0443325	0.781094	0.825061
H	1.63033	-0.460009	1.4494
H	0.98592	-1.95231	-0.780836
H	-1.13169	-0.616055	-1.93209
H	-1.568	1.5582	-0.289398
C	5.09357	-1.04677	0.442115
C	6.33356	-0.682267	-0.0382178
N	6.33154	0.601714	-0.471692
C	5.09501	1.03212	-0.261076
N	4.31017	0.075216	0.288438
H	4.72548	-1.9936	0.868205
H	7.22962	-1.32274	-0.0797647
H	4.7107	2.03898	-0.49077
H	3.29779	0.169954	0.547975
