18
  This energy is -0.6132 and Call times are: 109287
C	-0.755721	0.6698	0.516386
C	0.424242	1.14427	0.0234962
C	1.09275	0.0166155	-0.54361
C	0.262288	-1.0474	-0.347208
O	-0.871238	-0.66672	0.298711
H	-1.58655	1.17442	1.03632
H	0.787443	2.18404	0.0560091
H	2.07732	0.00823879	-1.03822
H	0.361621	-2.1118	-0.616344
C	6.66701	0.808835	0.377591
C	6.34253	-0.378016	0.999877
N	5.42084	-1.06831	0.285382
C	5.17448	-0.312573	-0.77612
N	5.9012	0.829958	-0.766643
H	7.36539	1.61307	0.658657
H	6.75695	-0.748602	1.9516
H	4.4711	-0.548183	-1.59097
H	5.88446	1.58754	-1.49262
