18
  This energy is -1.2799 and Call times are: 54802
C	0.464211	-0.0422597	1.03398
C	0.0893912	-1.16436	0.355185
C	-0.444447	-0.708762	-0.888826
C	-0.348722	0.651533	-0.860406
O	0.203916	1.07577	0.30648
H	0.921207	0.09239	2.0281
H	0.179765	-2.20819	0.696277
H	-0.850272	-1.32912	-1.70403
H	-0.634509	1.42011	-1.5972
C	5.30644	0.673893	-0.529737
C	5.01575	0.635687	0.817551
N	4.02986	-0.256424	1.0796
C	3.71014	-0.769707	-0.100634
N	4.45174	-0.241162	-1.10276
H	6.03667	1.26769	-1.10219
H	5.49973	1.23584	1.60522
H	2.94037	-1.53562	-0.287849
H	4.38782	-0.482458	-2.12205
