18
  This energy is -1.3764 and Call times are: 86601
C	-0.0727682	-0.502982	1.01396
C	-0.295153	0.831832	0.843106
C	-0.112506	1.08335	-0.550988
C	0.205368	-0.119971	-1.10898
O	0.234126	-1.09993	-0.16777
H	-0.101549	-1.13971	1.9134
H	-0.56113	1.56572	1.62077
H	-0.208713	2.05101	-1.06912
H	0.430722	-0.406742	-2.14928
C	5.29619	0.609588	0.145256
C	4.21887	0.567742	1.00477
N	3.24049	-0.23681	0.523135
C	3.70907	-0.692356	-0.630786
N	4.94503	-0.211002	-0.903318
H	6.25588	1.1473	0.203626
H	4.13001	1.10367	1.9638
H	3.18852	-1.38082	-1.31583
H	5.52526	-0.422588	-1.75175
