18
  This energy is -0.8753 and Call times are: 116273
C	1.06512	-0.276534	-0.274691
C	-0.0165428	-0.886795	-0.838576
C	-1.16339	-0.275369	-0.246118
C	-0.681318	0.654551	0.62751
O	0.677661	0.667453	0.622961
H	2.14747	-0.421705	-0.425344
H	-0.00770697	-1.68722	-1.59577
H	-2.22055	-0.507476	-0.452624
H	-1.1947	1.36012	1.3012
C	4.62737	-0.0484882	0.886448
C	5.42195	-1.07615	0.424158
N	6.19443	-0.668376	-0.611947
C	5.88027	0.607398	-0.791745
N	4.93992	1.02827	0.087011
H	3.88635	-0.00854239	1.70059
H	5.45169	-2.10451	0.819663
H	6.30854	1.27992	-1.55235
H	4.52752	1.99133	0.147768
