18
  This energy is -1.1688 and Call times are: 45678
C	-0.602035	-0.491464	0.826086
C	-1.02271	-0.471068	-0.471214
C	-0.0111833	0.226618	-1.19934
C	0.93833	0.570977	-0.282705
O	0.593787	0.140392	0.95943
H	-1.05648	-0.917907	1.73541
H	-1.9521	-0.903905	-0.874925
H	-0.000363931	0.442274	-2.27983
H	1.89132	1.11529	-0.386488
C	4.55783	-0.764984	0.826325
C	4.3868	0.60308	0.843444
N	4.90326	1.17407	-0.271788
C	5.39284	0.164075	-0.97808
N	5.20928	-1.02587	-0.358469
H	4.27161	-1.54532	1.5493
H	3.89999	1.18836	1.64051
H	5.89584	0.239773	-1.95557
H	5.50658	-1.96776	-0.713054
