18
  This energy is -0.7077 and Call times are: 34279
C	0.0990303	0.0909666	-1.1262
C	-1.10817	0.137088	-0.493013
C	-0.825253	-0.00961338	0.899308
C	0.529854	-0.13243	0.994041
O	1.1104	-0.0732107	-0.233343
H	0.368355	0.162292	-2.19279
H	-2.09853	0.261893	-0.959602
H	-1.55265	-0.0211656	1.72687
H	1.19283	-0.265224	1.86472
C	5.35786	-1.1212	0.248004
C	5.37216	-0.0557517	1.12308
N	5.02116	1.09445	0.498292
C	4.78999	0.743878	-0.759597
N	4.97935	-0.581694	-0.961066
H	5.58275	-2.18952	0.395192
H	5.62945	-0.0963604	2.19406
H	4.47959	1.41786	-1.57423
H	4.86048	-1.09976	-1.86591
