18
  This energy is -0.6494 and Call times are: 136978
C	0.296526	0.491721	0.978102
C	0.857517	-0.674515	0.54734
C	0.234761	-0.969223	-0.703835
C	-0.651812	0.0429385	-0.927199
O	-0.627317	0.944031	0.0898776
H	0.466429	1.09306	1.88628
H	1.63216	-1.26774	1.0593
H	0.430556	-1.83638	-1.35483
H	-1.34841	0.234217	-1.75991
C	6.38741	0.987785	-0.414489
C	7.0023	-0.236594	-0.259703
N	6.14281	-1.15466	0.245228
C	4.99907	-0.502297	0.403087
N	5.09521	0.792782	0.0195279
H	6.76534	1.9519	-0.790243
H	8.0507	-0.47399	-0.503316
H	4.06011	-0.924886	0.79551
H	4.33099	1.51142	0.0474471
