18
  This energy is -0.8758 and Call times are: 183736
C	-1.07691	-0.300709	-0.190364
C	-0.635305	0.095221	1.03789
C	0.753766	0.387131	0.878553
C	1.03838	0.143814	-0.432998
O	-0.0680342	-0.277024	-1.10065
H	-2.07185	-0.620087	-0.54157
H	-1.22825	0.17383	1.96327
H	1.45195	0.737068	1.65584
H	1.9762	0.230601	-1.0059
C	4.76015	-0.193251	0.516198
C	5.29432	-0.88194	-0.552221
N	6.51243	-0.39282	-0.889076
C	6.73311	0.595546	-0.0328883
N	5.7059	0.755567	0.834767
H	3.80577	-0.307398	1.05441
H	4.8226	-1.72299	-1.08605
H	7.63021	1.23441	0.00307837
H	5.64209	1.46689	1.60366
