18
  This energy is -0.9019 and Call times are: 56004
C	-0.994494	0.456625	-0.298121
C	-0.286376	0.890882	0.783713
C	0.890677	0.0831212	0.830466
C	0.797932	-0.77344	-0.226924
O	-0.347062	-0.559389	-0.927055
H	-1.95907	0.783753	-0.719826
H	-0.564961	1.69897	1.47905
H	1.70615	0.140395	1.56926
H	1.47111	-1.57023	-0.583578
C	5.88806	-0.817585	-0.608962
C	5.67184	0.493139	-0.978279
N	4.95434	1.15388	-0.037468
C	4.7263	0.256471	0.911893
N	5.26898	-0.94787	0.614128
H	6.42089	-1.63943	-1.11314
H	6.0207	0.973895	-1.90673
H	4.16752	0.428098	1.84599
H	5.22626	-1.81555	1.20282
