18
  This energy is -2.335 and Call times are: 183184
C	-0.00420496	-0.148149	1.12447
C	-0.215325	1.06954	0.547371
C	-0.134977	0.853377	-0.862217
C	0.118148	-0.477319	-1.02206
O	0.201185	-1.10437	0.180822
H	0.0243554	-0.461381	2.18103
H	-0.408279	2.02421	1.06261
H	-0.253249	1.60713	-1.65718
H	0.258504	-1.09132	-1.9268
C	3.78192	-0.582951	0.881392
C	5.01162	0.0400188	0.911308
N	5.29722	0.615036	-0.28213
C	4.2487	0.349799	-1.0495
N	3.30778	-0.370143	-0.393794
H	3.22911	-1.14394	1.65161
H	5.69787	0.0848827	1.77264
H	4.1183	0.658879	-2.09912
H	2.39164	-0.702834	-0.782707
