18
  This energy is -0.8297 and Call times are: 16435
C	0.164787	1.1022	0.210719
C	-0.968373	0.446758	0.593758
C	-0.80583	-0.90331	0.156708
C	0.41231	-0.953696	-0.454824
O	1.01896	0.262207	-0.431007
H	0.479466	2.15152	0.333838
H	-1.83206	0.871385	1.13025
H	-1.51844	-1.73356	0.286967
H	0.953153	-1.78286	-0.939818
C	6.35436	0.143601	0.178642
C	5.36107	0.157039	1.13485
N	4.14229	-0.0402583	0.576142
C	4.37858	-0.175579	-0.721731
N	5.69719	-0.0725603	-1.01198
H	7.44596	0.268403	0.25852
H	5.502	0.305559	2.21787
H	3.62254	-0.35172	-1.50379
H	6.13543	-0.143784	-1.96284
