18
  This energy is -0.8982 and Call times are: 110987
C	0.386244	-0.924881	-0.530859
C	0.465341	0.32024	-1.08203
C	-0.116459	1.20842	-0.126648
C	-0.499726	0.427652	0.924007
O	-0.20037	-0.877941	0.694169
H	0.706888	-1.91135	-0.904107
H	0.890713	0.586533	-2.06297
H	-0.231867	2.30028	-0.219566
H	-0.9886	0.676999	1.88008
C	4.19203	-0.372662	-0.136412
C	4.73559	0.800155	-0.61618
N	6.04205	0.909471	-0.273042
C	6.30795	-0.191344	0.416975
N	5.22485	-0.996541	0.527096
H	3.17718	-0.79343	-0.217497
H	4.2085	1.56941	-1.20377
H	7.27916	-0.457878	0.864122
H	5.18034	-1.92012	1.02337
