18
  This energy is -1.1183 and Call times are: 118994
C	0.422363	0.887776	0.565565
C	0.0169234	-0.252858	1.19401
C	-0.446117	-1.12461	0.161651
C	-0.282759	-0.439728	-1.00652
O	0.246494	0.791104	-0.778584
H	0.847979	1.82636	0.956928
H	0.0414599	-0.459623	2.27602
H	-0.851973	-2.14165	0.284088
H	-0.501417	-0.714095	-2.05159
C	5.84059	0.282517	0.0657697
C	4.76679	1.12596	0.257372
N	3.59335	0.465378	0.105174
C	3.93786	-0.783119	-0.179765
N	5.28187	-0.944302	-0.215173
H	6.92657	0.462498	0.10805
H	4.81774	2.1993	0.502705
H	3.24618	-1.6192	-0.371557
H	5.79964	-1.83427	-0.417996
