18
  This energy is -0.7669 and Call times are: 46233
C	-0.417747	-0.196384	-1.03601
C	-0.471378	-1.12525	-0.0386664
C	0.14664	-0.516626	1.09612
C	0.523375	0.730439	0.692053
O	0.186503	0.942964	-0.607317
H	-0.769408	-0.223949	-2.08044
H	-0.902856	-2.13748	-0.0963057
H	0.289605	-0.963136	2.09326
H	1.03162	1.54972	1.22657
C	6.49756	-1.10572	-0.0226138
C	5.84418	0.00270536	0.472994
N	6.60241	1.11779	0.338102
C	7.72191	0.702703	-0.238995
N	7.70742	-0.630259	-0.476882
H	6.19721	-2.16392	-0.0821997
H	4.83926	0.017813	0.925487
H	8.58448	1.33282	-0.50949
H	8.47213	-1.19411	-0.922475
