18
  This energy is -0.5241 and Call times are: 175911
C	0.988496	0.0400266	-0.554685
C	-0.137091	-0.498138	-1.10587
C	-1.15859	-0.366106	-0.116312
C	-0.567049	0.241086	0.952225
O	0.744134	0.496352	0.701924
H	2.01154	0.156541	-0.948454
H	-0.23793	-0.943421	-2.10869
H	-2.2089	-0.688666	-0.199344
H	-0.965315	0.541311	1.93533
C	6.902	0.599993	-0.617981
C	7.14526	-0.340302	0.360698
N	5.98729	-0.832392	0.864142
C	5.02929	-0.199782	0.20031
N	5.52972	0.674419	-0.704638
H	7.5855	1.20138	-1.23822
H	8.13557	-0.672464	0.712563
H	3.94477	-0.338671	0.337255
H	4.97756	1.29136	-1.34943
