18
  This energy is -2.9493 and Call times are: 88303
C	0.076748	0.987119	-0.553268
C	0.345933	-0.208552	-1.15184
C	0.141105	-1.20341	-0.147628
C	-0.235167	-0.527851	0.975946
O	-0.279716	0.810915	0.746307
H	0.101822	2.01966	-0.938595
H	0.657483	-0.373427	-2.19579
H	0.262268	-2.29299	-0.258184
H	-0.495091	-0.879546	1.98787
C	3.73263	-0.373012	-0.961273
C	5.09646	-0.357697	-0.759072
N	5.40352	0.138047	0.464227
C	4.23463	0.429172	1.01882
N	3.19657	0.13921	0.199097
H	3.12586	-0.701219	-1.82014
H	5.86438	-0.695473	-1.47395
H	4.08156	0.856615	2.02286
H	2.17754	0.278126	0.407733
