18
  This energy is -0.7395 and Call times are: 74486
C	0.628093	-0.799759	0.502281
C	-0.528021	-0.327455	1.05064
C	-1.02188	0.653315	0.137237
C	-0.123956	0.693766	-0.888664
O	0.890137	-0.187148	-0.682224
H	1.34535	-1.56065	0.851341
H	-0.98701	-0.638509	2.00284
H	-1.9399	1.25388	0.240424
H	-0.0938501	1.29752	-1.81052
C	4.57744	-0.18622	0.552077
C	5.1965	1.02817	0.344298
N	6.36309	0.873283	-0.327705
C	6.46736	-0.432227	-0.536026
N	5.41547	-1.11442	-0.0244275
H	3.63141	-0.446891	1.05269
H	4.82229	2.01332	0.667234
H	7.29335	-0.941904	-1.05775
H	5.26664	-2.1526	-0.0601348
