18
  This energy is -0.9978 and Call times are: 134590
C	0.345219	0.556435	-0.92607
C	-0.920739	0.0650087	-0.798688
C	-0.970227	-0.560052	0.484655
C	0.269857	-0.395412	1.02822
O	1.08602	0.284313	0.180355
H	0.835561	1.11065	-1.74318
H	-1.73776	0.135591	-1.53462
H	-1.83324	-1.07046	0.941581
H	0.691342	-0.710912	1.99675
C	4.96143	-1.07644	-0.11602
C	4.49098	-0.498407	1.04403
N	4.02828	0.754206	0.813001
C	4.21098	0.952511	-0.485428
N	4.77075	-0.122003	-1.09013
H	5.40366	-2.0664	-0.310793
H	4.47714	-0.962751	2.04355
H	3.95275	1.86616	-1.04472
H	5.01329	-0.211071	-2.10723
