18
  This energy is -1.0741 and Call times are: 211382
C	-0.529592	0.687307	-0.73044
C	0.310814	1.15655	0.235946
C	0.77453	0.00562749	0.943377
C	0.176561	-1.06533	0.346841
O	-0.623334	-0.667463	-0.677308
H	-1.11388	1.2078	-1.50694
H	0.577441	2.20771	0.431058
H	1.47218	-0.0129887	1.79604
H	0.237491	-2.14623	0.554664
C	5.84454	-0.874997	-0.255205
C	6.00122	0.0868249	0.720241
N	4.94926	0.94099	0.737657
C	4.14305	0.510706	-0.223331
N	4.63843	-0.581828	-0.85147
H	6.48463	-1.71918	-0.557177
H	6.85446	0.179748	1.41176
H	3.17766	0.958595	-0.509087
H	4.1893	-1.10575	-1.64207
