18
  This energy is -1.0833 and Call times are: 155335
C	-0.846156	0.732689	0.18327
C	-0.914276	-0.237463	-0.773045
C	0.323271	-0.946793	-0.699262
C	1.03839	-0.347485	0.295628
O	0.339426	0.680141	0.845575
H	-1.56463	1.5117	0.486913
H	-1.75196	-0.433882	-1.46137
H	0.635877	-1.80253	-1.31901
H	2.04185	-0.555441	0.701933
C	7.08162	-0.395981	-1.0933
C	7.95303	-0.478351	-0.0279356
N	7.4186	0.0808066	1.08482
C	6.2202	0.508437	0.711207
N	5.96997	0.244545	-0.593147
H	7.17092	-0.736485	-2.13715
H	8.9578	-0.931226	-0.0422648
H	5.48546	1.0213	1.35258
H	5.09572	0.482534	-1.12257
