18
  This energy is -0.9297 and Call times are: 45422
C	-0.336744	-0.734845	-0.795618
C	0.390374	-1.11888	0.292589
C	0.617384	0.0702304	1.05062
C	0.00894949	1.07594	0.358713
O	-0.578775	0.602259	-0.771428
H	-0.737646	-1.30928	-1.64683
H	0.732545	-2.13735	0.536985
H	1.17056	0.157026	1.99959
H	-0.0760905	2.15603	0.562225
C	4.70099	0.201593	-0.925112
C	4.36831	-0.468905	0.232862
N	5.41782	-0.516016	1.08891
C	6.39785	0.122825	0.464385
N	6.01542	0.574458	-0.753548
H	4.11493	0.432102	-1.82896
H	3.38981	-0.919514	0.46598
H	7.41541	0.288614	0.853402
H	6.60741	1.10716	-1.43694
