18
  This energy is -0.6229 and Call times are: 66000
C	1.01663	-0.363656	-0.347311
C	0.173987	0.335533	-1.16062
C	-0.987456	0.610972	-0.376208
C	-0.752029	0.0557851	0.847195
O	0.467191	-0.543596	0.882629
H	2.02077	-0.783481	-0.522497
H	0.3524	0.627986	-2.20787
H	-1.8886	1.15944	-0.694355
H	-1.36392	0.0192047	1.76344
C	6.52724	-0.196441	0.442364
C	6.90547	0.843591	-0.380083
N	8.21977	0.760567	-0.699816
C	8.65524	-0.326835	-0.0780879
N	7.6725	-0.939133	0.623977
H	5.55652	-0.452083	0.89612
H	6.25357	1.65238	-0.748494
H	9.6843	-0.720076	-0.103082
H	7.76529	-1.81311	1.1974
