18
  This energy is -1.1753 and Call times are: 170176
C	-1.04819	-0.364605	0.234011
C	-0.531002	0.772366	0.781905
C	0.790272	0.895063	0.253419
C	0.963857	-0.177761	-0.570772
O	-0.148904	-0.957637	-0.594607
H	-2.02991	-0.851983	0.352063
H	-1.02988	1.45606	1.48744
H	1.5195	1.6928	0.467727
H	1.82056	-0.49442	-1.18806
C	5.75429	-0.416778	-0.801517
C	4.94717	0.694409	-0.923843
N	4.20349	0.88351	0.193158
C	4.54795	-0.106599	1.00535
N	5.47996	-0.917835	0.451429
H	6.48026	-0.871273	-1.4943
H	4.88812	1.36306	-1.79807
H	4.14865	-0.284565	2.01685
H	5.9114	-1.76676	0.892399
