18
  This energy is -1.3624 and Call times are: 112298
C	0.478272	1.02256	0.109666
C	-0.828163	0.789636	0.424864
C	-1.05423	-0.594943	0.156626
C	0.134015	-1.08589	-0.298808
O	1.08109	-0.111816	-0.333961
H	1.08939	1.93887	0.156082
H	-1.55931	1.5196	0.807839
H	-1.9955	-1.15193	0.290277
H	0.430587	-2.09608	-0.625619
C	4.52161	0.164594	-1.12007
C	4.37687	-1.04247	-0.469534
N	3.9933	-0.860986	0.817496
C	3.90043	0.453659	0.964834
N	4.20902	1.11617	-0.175099
H	4.81515	0.40572	-2.15411
H	4.54235	-2.04104	-0.905779
H	3.6107	0.984259	1.88611
H	4.20996	2.1565	-0.312821
