18
  This energy is -1.2677 and Call times are: 174982
C	-0.0146676	-1.07125	0.372288
C	-0.213535	-0.750714	-0.938467
C	-0.122496	0.672862	-1.01101
C	0.123969	1.09658	0.261819
O	0.19299	0.0447121	1.11962
H	0.00301342	-2.04287	0.892777
H	-0.405121	-1.4469	-1.77076
H	-0.229461	1.29988	-1.91073
H	0.268322	2.10573	0.681371
C	4.1353	0.868407	0.214935
C	3.98686	-0.159204	-0.692329
N	5.06314	-0.982584	-0.678407
C	5.87617	-0.467734	0.234023
N	5.36182	0.649097	0.801229
H	3.47688	1.71209	0.476134
H	3.12246	-0.321255	-1.35671
H	6.86021	-0.868489	0.526064
H	5.81165	1.2361	1.54577
