18
  This energy is -1.6744 and Call times are: 149189
C	-0.337633	0.998729	0.418264
C	0.634124	0.248726	1.01287
C	0.776293	-0.919658	0.203684
C	-0.121135	-0.780495	-0.813975
O	-0.81003	0.385329	-0.698693
H	-0.776593	1.97334	0.687905
H	1.1946	0.493682	1.92937
H	1.46891	-1.76071	0.368045
H	-0.36228	-1.43158	-1.67024
C	3.92309	0.992191	-0.41618
C	3.7941	-0.273905	-0.946754
N	4.47747	-1.18397	-0.211026
C	5.02831	-0.485114	0.772235
N	4.72374	0.831888	0.692622
H	3.51538	1.96351	-0.73843
H	3.22019	-0.547024	-1.84725
H	5.66383	-0.887863	1.5773
H	5.03771	1.58701	1.35025
