18
  This energy is -1.2343 and Call times are: 133825
C	0.246402	0.211538	-1.08671
C	-0.394054	1.11741	-0.293249
C	-0.522001	0.495146	0.98602
C	0.0515636	-0.736057	0.861372
O	0.526108	-0.926125	-0.397871
H	0.556276	0.255662	-2.14373
H	-0.741528	2.12295	-0.580039
H	-0.9884	0.922291	1.8883
H	0.183412	-1.55776	1.58433
C	3.87758	-0.797814	-0.268727
C	4.32534	-0.463249	0.99172
N	5.28031	0.496435	0.93226
C	5.42445	0.756243	-0.360159
N	4.60077	0.00164883	-1.12549
H	3.12074	-1.52401	-0.605416
H	3.97643	-0.897133	1.94296
H	6.11882	1.48964	-0.800859
H	4.5271	0.0217687	-2.17211
