18
  This energy is -1.1694 and Call times are: 180819
C	0.459086	-0.765636	-0.699601
C	-0.863639	-0.435834	-0.744355
C	-1.05645	0.546158	0.274777
C	0.165465	0.729751	0.852341
O	1.10275	-0.063361	0.269687
H	1.05616	-1.47541	-1.2954
H	-1.62699	-0.843204	-1.42659
H	-1.99902	1.05154	0.539817
H	0.494259	1.38632	1.67457
C	5.54912	-0.966898	-0.572988
C	6.35198	0.047421	-0.0957874
N	5.6155	1.00748	0.514457
C	4.36052	0.590341	0.416209
N	4.26797	-0.595332	-0.231251
H	5.79074	-1.89585	-1.11355
H	7.44945	0.10371	-0.180882
H	3.4708	1.11435	0.800971
H	3.38794	-1.12975	-0.434241
