18
  This energy is -0.841 and Call times are: 141402
C	-1.13193	-0.0704773	-0.012981
C	-0.402793	-0.236428	1.12772
C	0.963974	-0.0769327	0.744798
C	0.949394	0.172404	-0.596094
O	-0.322297	0.17997	-1.07542
H	-2.21809	-0.105887	-0.198048
H	-0.788702	-0.449757	2.1375
H	1.84846	-0.142012	1.39866
H	1.76495	0.358917	-1.31396
C	6.0856	1.12559	0.289309
C	4.87853	0.542223	-0.0329009
N	5.03181	-0.774608	-0.313924
C	6.32903	-1.00729	-0.166613
N	7.00749	0.106914	0.196489
H	6.34514	2.15907	0.568764
H	3.89979	1.0479	-0.0676338
H	6.83505	-1.97527	-0.31219
H	8.03921	0.180722	0.373567
