18
  This energy is -0.4587 and Call times are: 68814
C	-0.636454	0.109433	-0.93239
C	-1.16041	0.195987	0.323936
C	-0.0631588	0.00856822	1.21894
C	1.03444	-0.175969	0.430536
O	0.702718	-0.11748	-0.886107
H	-1.10481	0.190502	-1.92704
H	-2.21389	0.373958	0.593373
H	-0.096758	0.0123341	2.32029
H	2.0928	-0.355675	0.681204
C	6.96669	0.470005	-0.91818
C	7.42833	0.372288	0.377381
N	6.5135	-0.226215	1.17825
C	5.48822	-0.498756	0.382548
N	5.71277	-0.0984717	-0.891398
H	7.4264	0.889847	-1.82699
H	8.40512	0.722915	0.748596
H	4.54828	-0.990358	0.68101
H	5.05668	-0.201535	-1.70391
