18
  This energy is -0.8741 and Call times are: 124641
C	1.10113	-0.271019	-0.021692
C	0.50538	0.277442	1.07587
C	-0.864162	0.473078	0.720631
C	-0.984425	0.0268967	-0.562659
O	0.206056	-0.431038	-1.03177
H	2.14042	-0.588073	-0.207688
H	0.98249	0.519923	2.03903
H	-1.66003	0.8974	1.35359
H	-1.85071	-0.0179503	-1.24294
C	6.19204	-0.0273782	-0.870066
C	5.6103	-1.11069	-0.246236
N	4.74079	-0.712706	0.714009
C	4.78295	0.612459	0.685995
N	5.64324	1.07414	-0.252269
H	6.93301	0.0355375	-1.68281
H	5.8024	-2.17232	-0.471813
H	4.20442	1.29362	1.33063
H	5.85235	2.07962	-0.468005
