18
  This energy is -1.0379 and Call times are: 152306
C	-0.675227	0.28711	-0.864891
C	-1.15327	-0.290907	0.274297
C	-0.0165711	-0.499217	1.11373
C	1.05574	-0.0301054	0.413406
O	0.67186	0.453784	-0.797171
H	-1.18398	0.62253	-1.78354
H	-2.20121	-0.545092	0.500771
H	-0.00796956	-0.947023	2.12045
H	2.12859	0.0154732	0.662747
C	4.92757	-0.149923	-1.16506
C	5.27598	1.00633	-0.499609
N	5.25706	0.822094	0.842855
C	4.89827	-0.443645	1.00959
N	4.68813	-1.07239	-0.171128
H	4.83613	-0.374111	-2.23973
H	5.54067	1.9702	-0.964098
H	4.77428	-0.960977	1.9746
H	4.39806	-2.07211	-0.304089
