18
  This energy is -2.2718 and Call times are: 203475
C	0.196767	-1.10799	0.141553
C	-0.13052	-0.573166	-1.06974
C	-0.297518	0.827668	-0.846367
C	-0.0575393	1.02521	0.481699
O	0.245831	-0.146165	1.10046
H	0.416149	-2.14391	0.448129
H	-0.243054	-1.11114	-2.02473
H	-0.565277	1.59176	-1.59374
H	-0.0705202	1.93841	1.09907
C	3.68339	1.16267	0.162302
C	3.78094	0.183256	1.1279
N	3.63645	-1.05131	0.588004
C	3.44996	-0.838592	-0.707605
N	3.46981	0.480138	-1.01444
H	3.74866	2.26043	0.227104
H	3.95299	0.345303	2.20446
H	3.2939	-1.61267	-1.47616
H	3.34608	0.902229	-1.96722
