18
  This energy is -1.0395 and Call times are: 204870
C	0.742873	-0.0784808	-0.853453
C	0.879919	-0.790214	0.301981
C	-0.233761	-0.427119	1.11929
C	-0.953049	0.474444	0.391155
O	-0.371101	0.699138	-0.816265
H	1.36187	-0.0375871	-1.76473
H	1.68454	-1.49973	0.553506
H	-0.464298	-0.799143	2.1305
H	-1.88363	1.02055	0.617088
C	6.17077	-0.636068	0.195254
C	5.84374	0.0411608	-0.96041
N	4.64932	0.669407	-0.837236
C	4.23692	0.383013	0.390174
N	5.11944	-0.401413	1.05307
H	7.04797	-1.24797	0.459132
H	6.44823	0.0877181	-1.88088
H	3.29657	0.721757	0.854091
H	5.02148	-0.762119	2.03366
