18
  This energy is -0.4035 and Call times are: 131857
C	-0.773252	0.765781	0.319472
C	-0.855992	-0.548223	0.675735
C	0.282142	-1.18397	0.0921351
C	0.959908	-0.202347	-0.569238
O	0.329574	0.994835	-0.441003
H	-1.4267	1.62571	0.540349
H	-1.63986	-1.02225	1.28807
H	0.556165	-2.24893	0.162017
H	1.89006	-0.227006	-1.16038
C	6.03056	-1.02119	0.34914
C	5.41878	-0.0455192	-0.409109
N	6.2531	1.00032	-0.625075
C	7.37819	0.674703	-0.0031708
N	7.29432	-0.534964	0.599541
H	5.66814	-1.99462	0.716028
H	4.39032	-0.077477	-0.804217
H	8.29426	1.28541	0.042489
H	8.04832	-1.01164	1.15227
