18
  This energy is -0.6741 and Call times are: 175014
C	0.619036	-0.0988836	-0.945208
C	-0.742057	-0.0138403	-0.969045
C	-1.15077	0.0980435	0.394976
C	-0.00335489	0.0714946	1.13194
O	1.08709	-0.0483593	0.329699
H	1.35974	-0.197023	-1.75575
H	-1.39295	-0.0284335	-1.85799
H	-2.18156	0.187445	0.773883
H	0.168666	0.129031	2.21929
C	5.81189	-0.840274	-0.645756
C	4.62673	-0.191649	-0.921119
N	4.33459	0.720326	0.0377679
C	5.3347	0.637779	0.904701
N	6.25108	-0.288913	0.537165
H	6.35569	-1.62889	-1.18972
H	3.97721	-0.365372	-1.7945
H	5.44566	1.23269	1.82557
H	7.12889	-0.539623	1.05471
