18
  This energy is -0.6942 and Call times are: 106550
C	0.792625	0.762423	0.277232
C	0.941577	-0.570058	0.527594
C	-0.24765	-1.19449	0.0418546
C	-1.01834	-0.188467	-0.462456
O	-0.398536	1.01341	-0.327046
H	1.45266	1.62227	0.477867
H	1.80253	-1.06371	1.0063
H	-0.492077	-2.26855	0.0690743
H	-2.01299	-0.197451	-0.93768
C	6.90346	0.754173	0.00850945
C	6.95737	-0.604313	0.238193
N	5.7263	-1.16398	0.150181
C	4.91177	-0.15653	-0.133025
N	5.57355	1.02095	-0.228857
H	7.6911	1.52427	-0.00245863
H	7.86249	-1.19064	0.465836
H	3.82194	-0.225314	-0.280611
H	5.15356	1.95847	-0.443149
