18
  This energy is -0.9025 and Call times are: 35003
C	1.04821	-0.355045	0.248211
C	0.192668	-1.08623	-0.522372
C	-1.00953	-0.319635	-0.607106
C	-0.782506	0.812331	0.119176
O	0.469138	0.807416	0.648682
H	2.08152	-0.549411	0.579478
H	0.388513	-2.06703	-0.984736
H	-1.93111	-0.587887	-1.14823
H	-1.42193	1.68461	0.332544
C	6.02027	-1.09058	0.138219
C	6.52634	-0.106877	-0.6848
N	5.79329	1.02946	-0.595962
C	4.8361	0.751766	0.278844
N	4.92972	-0.514155	0.750299
H	6.34806	-2.12549	0.325412
H	7.40727	-0.196713	-1.34111
H	4.04093	1.43889	0.610203
H	4.2929	-0.969748	1.44898
