18
  This energy is -0.9136 and Call times are: 83124
C	-0.983571	-0.499283	-0.26402
C	0.216102	-0.963545	-0.717474
C	1.20446	-0.0840412	-0.179193
C	0.521504	0.840032	0.555679
O	-0.815854	0.601649	0.514974
H	-2.01367	-0.858581	-0.422315
H	0.387817	-1.83766	-1.36596
H	2.29484	-0.140661	-0.327354
H	0.866605	1.70448	1.14635
C	5.33235	0.33846	1.02559
C	6.44089	-0.461446	0.845466
N	6.69918	-0.649182	-0.471558
C	5.75447	0.0316692	-1.10606
N	4.9058	0.644826	-0.247348
H	4.83348	0.699328	1.93907
H	7.05894	-0.906474	1.64221
H	5.63764	0.114792	-2.19862
H	4.08018	1.24017	-0.502621
