18
  This energy is -1.2554 and Call times are: 105434
C	0.412188	-0.487791	0.937317
C	0.452905	0.860819	0.737398
C	-0.152593	1.08569	-0.536542
C	-0.50987	-0.145352	-1.00265
O	-0.172475	-1.11792	-0.115356
H	0.761028	-1.11354	1.77517
H	0.867716	1.621	1.41868
H	-0.300588	2.05489	-1.03937
H	-1.00352	-0.458214	-1.93736
C	5.69887	-0.574924	-0.238345
C	5.24265	-0.188751	1.00418
N	4.05357	0.454446	0.909904
C	3.77318	0.467245	-0.386183
N	4.73457	-0.141145	-1.12047
H	6.61108	-1.10988	-0.546965
H	5.75018	-0.362707	1.96699
H	2.87734	0.908816	-0.851709
H	4.74365	-0.259799	-2.16311
