18
  This energy is -1.0844 and Call times are: 48239
C	-0.905968	-0.419892	-0.537879
C	0.200386	0.0191696	-1.2039
C	1.11029	0.466831	-0.198018
C	0.479643	0.26181	0.993881
O	-0.752748	-0.27912	0.805147
H	-1.85499	-0.848505	-0.899667
H	0.359749	0.0270157	-2.29414
H	2.1154	0.890775	-0.353308
H	0.796658	0.456073	2.03167
C	5.24849	0.0237205	1.15012
C	5.12148	1.10842	0.308433
N	4.83018	0.714886	-0.955208
C	4.77668	-0.608915	-0.897663
N	5.02186	-1.07399	0.350209
H	5.4765	-0.042513	2.22584
H	5.23482	2.16792	0.590306
H	4.56192	-1.28662	-1.73958
H	5.03652	-2.07924	0.651045
