18
  This energy is -1.1122 and Call times are: 45196
C	0.268147	-0.808641	0.748731
C	-0.97583	-0.252533	0.688383
C	-0.922518	0.711476	-0.364215
C	0.34933	0.65936	-0.854174
O	1.09026	-0.26358	-0.186177
H	0.68875	-1.58995	1.40287
H	-1.8439	-0.496678	1.32158
H	-1.74104	1.36337	-0.7094
H	0.844113	1.21937	-1.66462
C	4.7976	1.04769	0.527165
C	5.43013	-0.122834	0.888991
N	5.08816	-1.13929	0.0605082
C	4.24669	-0.601393	-0.811968
N	4.03908	0.715179	-0.572957
H	4.83241	2.06	0.960242
H	6.12711	-0.252141	1.733
H	3.75344	-1.12637	-1.64583
H	3.41853	1.35983	-1.12123
