18
  This energy is -0.7895 and Call times are: 61573
C	0.787837	0.231044	-0.782517
C	-0.548045	0.328237	-1.04009
C	-1.20773	-0.0373429	0.172872
C	-0.216735	-0.325663	1.0646
O	1.00838	-0.167066	0.498063
H	1.6701	0.415243	-1.41729
H	-1.02142	0.627361	-1.98906
H	-2.29428	-0.0780227	0.35135
H	-0.252359	-0.650132	2.11755
C	6.65592	0.240073	0.64318
C	6.45405	0.547471	-0.685691
N	5.23783	0.122621	-1.1062
C	4.68729	-0.44618	-0.0422507
N	5.50279	-0.40085	1.03779
H	7.51006	0.425855	1.3136
H	7.16417	1.0682	-1.34857
H	3.68932	-0.911382	0.00114081
H	5.29605	-0.781431	1.99365
