18
  This energy is -0.8401 and Call times are: 119546
C	-0.367017	-0.674347	0.834839
C	0.952526	-0.373387	0.665706
C	1.01441	0.48783	-0.472095
C	-0.272772	0.637122	-0.897815
O	-1.12965	-0.0657263	-0.111195
H	-0.884303	-1.30109	1.57973
H	1.79753	-0.722798	1.2805
H	1.91694	0.938915	-0.914877
H	-0.703946	1.20868	-1.73606
C	5.45309	-0.834699	0.699031
C	4.88054	0.381465	0.391997
N	5.67152	1.09671	-0.444228
C	6.73076	0.327197	-0.655164
N	6.64651	-0.848022	0.0121859
H	5.10728	-1.66396	1.33643
H	3.91088	0.75564	0.758875
H	7.59694	0.575516	-1.28943
H	7.35528	-1.6219	0.00730835
