18
  This energy is -0.8677 and Call times are: 193687
C	-0.465694	0.916217	0.479663
C	0.249507	0.982571	-0.679845
C	0.665655	-0.354837	-0.959627
C	0.168019	-1.1204	0.0536087
O	-0.525595	-0.36052	0.94158
H	-0.975855	1.69531	1.06959
H	0.462643	1.88298	-1.27811
H	1.2656	-0.697536	-1.81795
H	0.236887	-2.20218	0.254242
C	4.42413	-0.473928	-0.0547516
C	5.39489	-0.731855	0.889843
N	6.51578	-0.00949835	0.648393
C	6.24145	0.693883	-0.441846
N	4.99247	0.44901	-0.904087
H	3.40316	-0.868674	-0.178532
H	5.30657	-1.42622	1.74125
H	6.91911	1.40318	-0.943752
H	4.54273	0.88009	-1.74858
