18
  This energy is -1.8576 and Call times are: 140213
C	-0.194605	0.69487	-0.875034
C	0.637443	-0.381866	-0.968366
C	0.623659	-0.999437	0.319474
C	-0.215595	-0.245573	1.0861
O	-0.724275	0.793309	0.372672
H	-0.489068	1.45755	-1.61454
H	1.20406	-0.708463	-1.85514
H	1.17747	-1.90006	0.629738
H	-0.529237	-0.342184	2.1385
C	3.74669	0.995677	-0.29591
C	4.4662	0.759879	0.856413
N	4.96923	-0.498412	0.869506
C	4.56333	-1.04116	-0.27036
N	3.82289	-0.180362	-1.00817
H	3.20393	1.88739	-0.647753
H	4.63136	1.47514	1.67859
H	4.77987	-2.06534	-0.614454
H	3.38944	-0.372272	-1.94441
