18
  This energy is -0.7643 and Call times are: 174757
C	-0.670608	0.908303	-0.108036
C	-1.15927	-0.328506	0.19509
C	-0.0254618	-1.19584	0.243333
C	1.05597	-0.412478	-0.0345707
O	0.680416	0.875461	-0.251795
H	-1.17376	1.87923	-0.247303
H	-2.2125	-0.602571	0.367428
H	-0.0248188	-2.27608	0.460512
H	2.1304	-0.648361	-0.106713
C	7.37236	0.963034	0.484291
C	6.68211	0.889431	-0.707049
N	6.27803	-0.379112	-0.960075
C	6.71592	-1.08978	0.0703763
N	7.38187	-0.325991	0.968557
H	7.8418	1.81312	1.0044
H	6.46844	1.72892	-1.38855
H	6.5766	-2.17293	0.217344
H	7.82166	-0.653376	1.86336
