18
  This energy is -0.6152 and Call times are: 82692
C	-0.071306	-0.740798	0.855882
C	-1.11801	-0.489501	0.0182448
C	-0.647292	0.484504	-0.914417
C	0.645507	0.742424	-0.564383
O	1.01385	0.00286966	0.514689
H	0.0268303	-1.41721	1.7208
H	-2.12097	-0.944385	0.0535932
H	-1.21272	0.93495	-1.74597
H	1.3986	1.42124	-0.997169
C	5.78822	-0.00882556	-1.01932
C	4.51283	-0.482695	-0.795792
N	4.14828	-0.312837	0.498334
C	5.19354	0.264213	1.07545
N	6.20804	0.468555	0.202177
H	6.40618	0.0214568	-1.93077
H	3.84916	-0.944106	-1.54512
H	5.26921	0.558483	2.13466
H	7.13736	0.907089	0.415046
