18
  This energy is -1.9288 and Call times are: 7385
C	-0.267153	-0.880686	-0.66289
C	-0.300057	-0.954852	0.69865
C	0.0946803	0.334347	1.1701
C	0.333956	1.08252	0.0550399
O	0.117952	0.356368	-1.07326
H	-0.492256	-1.62798	-1.44144
H	-0.574744	-1.82965	1.30969
H	0.1869	0.657852	2.21936
H	0.658092	2.12902	-0.0675288
C	4.13393	-1.03896	-0.551828
C	4.70261	0.14291	-0.977202
N	4.46743	1.14385	-0.0944137
C	3.75556	0.585072	0.874931
N	3.52805	-0.729914	0.6455
H	4.11804	-2.04451	-1.00143
H	5.27838	0.291313	-1.90527
H	3.3751	1.09303	1.77574
H	2.99221	-1.38855	1.26221
