18
  This energy is -1.1655 and Call times are: 55637
C	-0.0199652	-1.04302	-0.445092
C	-1.14485	-0.423092	0.0139168
C	-0.720247	0.854604	0.490699
C	0.626628	0.902664	0.280956
O	1.07116	-0.247825	-0.289811
H	0.134313	-2.03595	-0.898453
H	-2.17071	-0.825208	0.0164984
H	-1.35144	1.6401	0.936446
H	1.3717	1.68752	0.49099
C	5.78176	-0.618385	-0.577212
C	6.09048	0.713656	-0.754697
N	7.08621	1.09982	0.0795185
C	7.39404	0.0114791	0.771895
N	6.63545	-1.05115	0.412797
H	5.03973	-1.26733	-1.06895
H	5.61259	1.40299	-1.46974
H	8.16683	-0.062835	1.55388
H	6.68766	-2.02009	0.812404
