18
  This energy is -1.0737 and Call times are: 17252
C	-0.873971	0.720087	-0.0636499
C	0.0427093	0.593614	-1.06569
C	0.973491	-0.394625	-0.621672
C	0.543431	-0.784812	0.612498
O	-0.583624	-0.114284	0.969083
H	-1.76652	1.35963	0.034272
H	0.0615555	1.14129	-2.02161
H	1.85749	-0.765508	-1.16489
H	0.945969	-1.52031	1.32822
C	5.60187	0.987841	0.21683
C	4.80502	0.293171	1.10205
N	4.26258	-0.801592	0.515739
C	4.72117	-0.786141	-0.728481
N	5.53291	0.27307	-0.958131
H	6.19339	1.9095	0.335879
H	4.61179	0.56229	2.15328
H	4.49413	-1.52619	-1.51271
H	6.01742	0.505523	-1.8595
