18
  This energy is -1.1403 and Call times are: 154642
C	0.607598	0.390532	-0.874477
C	0.641088	-0.917034	-0.487794
C	-0.242126	-1.01686	0.630278
C	-0.737368	0.238509	0.828131
O	-0.229132	1.11068	-0.0818314
H	1.12586	0.926248	-1.68667
H	1.22879	-1.72973	-0.944118
H	-0.475365	-1.92235	1.21319
H	-1.44801	0.635321	1.57162
C	5.80441	-0.450968	-0.603134
C	4.46384	-0.591826	-0.893303
N	3.69648	0.060666	0.0132917
C	4.55771	0.604245	0.862658
N	5.84124	0.324662	0.534068
H	6.70475	-0.834981	-1.10855
H	4.03659	-1.15257	-1.74057
H	4.30234	1.21652	1.74251
H	6.70071	0.638882	1.04773
