18
  This energy is -0.6658 and Call times are: 200846
C	-1.1238	-0.0629357	0.13972
C	-0.427842	1.09465	0.329532
C	0.93894	0.777429	0.062328
C	0.957551	-0.545995	-0.26718
O	-0.293533	-1.07517	-0.225053
H	-2.19789	-0.293606	0.231136
H	-0.836006	2.0737	0.627789
H	1.80119	1.46163	0.112222
H	1.7852	-1.21804	-0.547551
C	6.78104	-0.562295	0.77788
C	7.08121	-0.289966	-0.540028
N	6.06667	0.374234	-1.14506
C	5.14063	0.513426	-0.206066
N	5.52391	-0.0346767	0.971335
H	7.35395	-1.07705	1.5655
H	8.01164	-0.560838	-1.06516
H	4.1636	1.00843	-0.326913
H	4.96913	-0.054023	1.8619
