18
  This energy is -0.606 and Call times are: 191434
C	-0.326333	0.519731	0.953828
C	-1.2145	0.121964	-0.0018479
C	-0.433825	-0.483424	-1.03343
C	0.862485	-0.402158	-0.617081
O	0.946665	0.207593	0.594583
H	-0.472038	1.02805	1.92111
H	-2.30955	0.242746	0.017678
H	-0.803239	-0.925344	-1.97276
H	1.80301	-0.736178	-1.08515
C	6.82566	0.198395	0.280401
C	5.90855	-0.53221	1.00585
N	4.70291	-0.554986	0.387457
C	4.87142	0.158776	-0.717429
N	6.13431	0.634751	-0.82767
H	7.88598	0.430924	0.467994
H	6.09521	-1.04331	1.96439
H	4.10333	0.364322	-1.48033
H	6.5144	1.22393	-1.60848
