18
  This energy is -1.46 and Call times are: 195057
C	0.536047	-0.0707828	0.997018
C	-0.762208	0.334259	0.892859
C	-1.07402	0.293198	-0.500413
C	0.0612233	-0.133311	-1.12467
O	1.05458	-0.360361	-0.22539
H	1.19569	-0.193497	1.8717
H	-1.433	0.632076	1.71471
H	-2.03463	0.55285	-0.973596
H	0.287014	-0.313157	-2.18859
C	4.12791	1.17345	-0.0538973
C	4.3012	0.30561	-1.11123
N	4.34022	-0.980634	-0.686306
C	4.19169	-0.911007	0.629641
N	4.05979	0.366219	1.05962
H	4.0508	2.27172	-0.0163117
H	4.39878	0.58452	-2.17309
H	4.17224	-1.76456	1.32628
H	3.9303	0.68149	2.05214
