18
  This energy is -0.565 and Call times are: 193559
C	-0.307438	0.987334	0.465892
C	-1.20399	-0.00575686	0.200669
C	-0.447462	-1.07223	-0.374159
C	0.844606	-0.636697	-0.409461
O	0.94846	0.619107	0.0996384
H	-0.435588	1.98918	0.907628
H	-2.2892	0.0110126	0.390749
H	-0.829488	-2.04673	-0.718377
H	1.76909	-1.11874	-0.76754
C	5.83799	-0.572422	0.962482
C	5.04566	-0.0632666	-0.044559
N	5.79594	0.535563	-1.00111
C	7.04895	0.398427	-0.589061
N	7.12702	-0.262835	0.590018
H	5.58422	-1.11505	1.88698
H	3.94609	-0.117275	-0.0980616
H	7.94745	0.763379	-1.11226
H	8.00267	-0.495387	1.11956
