18
  This energy is -0.9576 and Call times are: 155536
C	0.817267	0.168769	0.76811
C	0.739433	0.891005	-0.386312
C	-0.405304	0.39472	-1.08158
C	-0.925949	-0.586978	-0.290648
O	-0.191897	-0.738417	0.843039
H	1.5331	0.204045	1.60572
H	1.41988	1.69281	-0.715266
H	-0.788887	0.735227	-2.05678
H	-1.8029	-1.24223	-0.420436
C	5.09342	-1.10573	-0.261658
C	4.41583	0.0445193	-0.606552
N	5.05342	1.14566	-0.140217
C	6.12249	0.680305	0.491577
N	6.19154	-0.671285	0.446562
H	4.87903	-2.16728	-0.463353
H	3.47832	0.0996059	-1.18352
H	6.88736	1.28537	1.00451
H	6.93915	-1.27352	0.870409
