18
  This energy is -1.4889 and Call times are: 103680
C	0.172136	0.979771	0.544811
C	0.00760762	-0.203174	1.20356
C	-0.181357	-1.19197	0.190296
C	-0.11562	-0.525972	-0.998191
O	0.0997877	0.801257	-0.800518
H	0.345489	2.00404	0.913679
H	0.0182434	-0.363395	2.29365
H	-0.346362	-2.27126	0.338574
H	-0.205192	-0.877506	-2.03918
C	3.46614	-0.825219	0.0937303
C	3.97537	-0.0442561	1.10957
N	4.92521	0.803377	0.644992
C	5.00493	0.54923	-0.654115
N	4.14519	-0.424973	-1.03538
H	2.69433	-1.61125	0.0943916
H	3.67443	-0.0772253	2.16938
H	5.67586	1.04722	-1.37251
H	4.01978	-0.803316	-2.00614
