18
  This energy is -0.9019 and Call times are: 210616
C	1.03789	-0.340872	0.304936
C	0.811185	0.388028	-0.82541
C	-0.597572	0.620331	-0.864861
C	-1.10737	0.0128817	0.24486
O	-0.122682	-0.57912	0.970756
H	1.96646	-0.745601	0.739908
H	1.56079	0.728005	-1.55794
H	-1.15739	1.17623	-1.63406
H	-2.13895	-0.0686212	0.624939
C	6.53724	-0.316109	0.637772
C	5.36816	-1.02889	0.475506
N	4.49953	-0.366776	-0.326737
C	5.12735	0.752512	-0.660891
N	6.35943	0.830008	-0.104514
H	7.45261	-0.536018	1.20985
H	5.13588	-2.00905	0.922922
H	4.73079	1.54962	-1.31019
H	7.04805	1.61383	-0.217136
