18
  This energy is -0.8846 and Call times are: 64769
C	0.833064	0.322035	0.69907
C	-0.20273	-0.464223	1.11053
C	-1.03291	-0.64932	-0.0369211
C	-0.431146	0.0401677	-1.04828
O	0.709654	0.63953	-0.616597
H	1.70854	0.719284	1.23851
H	-0.365811	-0.872865	2.12074
H	-1.96764	-1.23001	-0.0932683
H	-0.71079	0.179872	-2.10542
C	5.39705	-0.745032	-0.905219
C	4.46585	0.181354	-0.485919
N	4.91458	0.872828	0.589726
C	6.11959	0.377299	0.836786
N	6.45616	-0.600801	-0.0370733
H	5.38152	-1.47244	-1.73236
H	3.47824	0.363185	-0.940261
H	6.79806	0.694294	1.64513
H	7.35303	-1.1455	-0.0506773
