18
  This energy is -0.6072 and Call times are: 202544
C	-0.971876	0.232226	-0.53659
C	-0.73321	-0.974423	0.0528253
C	0.576656	-0.882733	0.61493
C	1.0228	0.371852	0.319388
O	0.0899123	1.0666	-0.383505
H	-1.84541	0.616199	-1.08864
H	-1.41151	-1.84203	0.0882232
H	1.11587	-1.66512	1.1728
H	1.97182	0.883403	0.549448
C	5.14017	0.431717	-0.27471
C	5.53068	-0.0930823	0.939056
N	6.82353	-0.497768	0.903196
C	7.2335	-0.225062	-0.328135
N	6.2551	0.336363	-1.07722
H	4.1798	0.85226	-0.6129
H	4.90273	-0.186968	1.84001
H	8.24007	-0.415941	-0.73386
H	6.33132	0.640975	-2.07855
