18
  This energy is -0.708 and Call times are: 202608
C	-0.171359	0.669329	-0.899464
C	-1.10961	0.502813	0.0764129
C	-0.53357	-0.398533	1.02292
C	0.705836	-0.703248	0.541884
O	0.943709	-0.05989	-0.631368
H	-0.175938	1.27125	-1.823
H	-2.10726	0.968034	0.12488
H	-0.995802	-0.771106	1.95116
H	1.50276	-1.35546	0.935319
C	5.83804	0.883703	-0.560958
C	6.05229	-0.465831	-0.745346
N	5.25841	-1.20241	0.0693462
C	4.55434	-0.313206	0.756534
N	4.86733	0.958606	0.412848
H	6.29249	1.76662	-1.03789
H	6.76547	-0.921226	-1.45163
H	3.79617	-0.538971	1.52363
H	4.45004	1.8348	0.812125
