18
  This energy is -1.8462 and Call times are: 103198
C	-0.533027	-0.960165	0.283488
C	-0.486185	0.121552	1.11299
C	0.261802	1.11786	0.414412
C	0.606013	0.557021	-0.780306
O	0.128867	-0.711819	-0.877215
H	-0.999304	-1.95212	0.401229
H	-0.933486	0.209102	2.11616
H	0.50975	2.13147	0.768265
H	1.18049	0.951329	-1.63456
C	4.15593	0.321514	-1.10282
C	3.95811	1.15525	-0.0225913
N	3.68043	0.445542	1.098
C	3.70588	-0.823644	0.714409
N	3.98825	-0.950902	-0.603796
H	4.39615	0.536458	-2.15622
H	4.01078	2.25615	-0.0317029
H	3.52484	-1.69955	1.35803
H	4.06485	-1.84795	-1.14296
