18
  This energy is -0.7861 and Call times are: 135492
C	0.647492	0.301959	0.880895
C	-0.231687	-0.738955	0.94348
C	-0.85085	-0.805617	-0.341943
C	-0.295374	0.200445	-1.07656
O	0.621722	0.887078	-0.345475
H	1.33924	0.720733	1.63013
H	-0.424825	-1.39411	1.8081
H	-1.6195	-1.52274	-0.672118
H	-0.465126	0.526467	-2.11586
C	6.04221	-0.971518	0.169739
C	6.30751	0.0515806	-0.715716
N	5.35674	1.01491	-0.648382
C	4.50485	0.591054	0.275334
N	4.87418	-0.602035	0.798521
H	6.58388	-1.90522	0.389572
H	7.16792	0.111899	-1.40194
H	3.59416	1.11521	0.607209
H	4.36732	-1.14261	1.54158
