18
  This energy is -0.7135 and Call times are: 15986
C	-0.368916	0.0965464	1.06817
C	-0.799062	0.920078	0.0695963
C	-0.118542	0.491719	-1.11088
C	0.667386	-0.555763	-0.729469
O	0.526998	-0.810823	0.598028
H	-0.621119	0.0541712	2.14048
H	-1.52296	1.74632	0.155653
H	-0.209897	0.9198	-2.12206
H	1.36206	-1.19416	-1.29967
C	5.06651	0.729097	-0.672459
C	4.59654	-0.343112	0.0559935
N	5.60385	-0.964567	0.716022
C	6.69457	-0.280493	0.398241
N	6.42302	0.750455	-0.43662
H	4.54891	1.45424	-1.32037
H	3.54868	-0.679422	0.117145
H	7.71769	-0.491459	0.748888
H	7.11414	1.43552	-0.829415
