18
  This energy is -1.3602 and Call times are: 191498
C	0.594001	0.429757	0.865374
C	-0.769641	0.401403	0.858147
C	-1.14155	-0.20498	-0.380441
C	0.0276539	-0.493648	-1.02076
O	1.09763	-0.11281	-0.274356
H	1.31353	0.804261	1.61189
H	-1.4458	0.770474	1.64599
H	-2.1634	-0.399537	-0.74386
H	0.229706	-0.962866	-1.99762
C	4.33401	-0.114002	-1.15954
C	3.97671	-1.01603	-0.179833
N	4.31873	-0.562181	1.05044
C	4.88605	0.616912	0.834769
N	4.91918	0.932098	-0.481723
H	4.21717	-0.141565	-2.25459
H	3.47826	-1.98617	-0.338643
H	5.29443	1.29084	1.60501
H	5.31518	1.80672	-0.90537
