18
  This energy is -0.9085 and Call times are: 173764
C	-0.985357	-0.452746	0.332404
C	-0.765763	0.893393	0.324566
C	0.570151	1.06887	-0.149413
C	1.04898	-0.185522	-0.389376
O	0.112344	-1.12697	-0.100594
H	-1.86759	-1.04793	0.619922
H	-1.47352	1.68353	0.622655
H	1.10412	2.02212	-0.291884
H	2.02554	-0.536544	-0.761353
C	5.9434	-0.322032	0.931359
C	5.52949	-1.12885	-0.10733
N	4.8036	-0.427423	-1.01154
C	4.76733	0.809832	-0.535614
N	5.44004	0.924709	0.633936
H	6.5406	-0.53959	1.83111
H	5.74162	-2.20451	-0.220496
H	4.26222	1.67022	-1.00342
H	5.55607	1.79726	1.20529
