18
  This energy is -0.6454 and Call times are: 169992
C	0.219937	-1.05618	0.350015
C	-0.980639	-0.448194	0.572152
C	-0.873461	0.852578	-0.00803851
C	0.383148	0.924647	-0.533504
O	1.06485	-0.232246	-0.323982
H	0.592398	-2.05863	0.617646
H	-1.85409	-0.873085	1.09239
H	-1.64729	1.63675	-0.0270845
H	0.904736	1.7321	-1.07315
C	5.2684	0.799976	0.85312
C	6.08808	-0.308485	0.877422
N	5.99146	-1.01302	-0.276183
C	5.11518	-0.344181	-1.01335
N	4.65024	0.756713	-0.376595
H	5.08728	1.59016	1.599
H	6.74745	-0.61249	1.70668
H	4.77808	-0.616391	-2.02651
H	3.95192	1.44598	-0.748762
