18
  This energy is -1.2754 and Call times are: 131986
C	0.574003	-0.971249	-0.116608
C	1.10619	0.122047	0.501338
C	0.0956111	1.13018	0.451055
C	-0.964913	0.563937	-0.193178
O	-0.690217	-0.719176	-0.546978
H	0.987308	-1.97452	-0.311249
H	2.10972	0.209794	0.947785
H	0.159821	2.15497	0.850764
H	-1.95773	0.963381	-0.457783
C	4.63685	-0.837521	-0.318206
C	5.91138	-1.02308	0.174022
N	6.5111	0.163352	0.437154
C	5.61203	1.08144	0.109413
N	4.46513	0.528349	-0.351342
H	3.86563	-1.5568	-0.636634
H	6.40896	-1.99177	0.344009
H	5.74163	2.17297	0.186943
H	3.60834	1.04212	-0.67261
