18
  This energy is -3.1459 and Call times are: 138704
C	-0.115051	0.499429	1.0118
C	0.187534	-0.824063	0.880704
C	0.246029	-1.07447	-0.524284
C	-0.0259741	0.118108	-1.12773
O	-0.249004	1.09036	-0.204699
H	-0.260279	1.13137	1.90332
H	0.352948	-1.55107	1.692
H	0.465814	-2.03422	-1.01892
H	-0.0898115	0.401638	-2.19111
C	4.10924	0.880849	-0.756841
C	5.32708	0.462583	-0.263826
N	5.17714	-0.580684	0.588009
C	3.87125	-0.808765	0.623314
N	3.18407	0.0461351	-0.170745
H	3.84431	1.68655	-1.45983
H	6.31125	0.89489	-0.507504
H	3.36481	-1.5892	1.21381
H	2.14458	0.0687832	-0.312853
