18
  This energy is -1.1567 and Call times are: 61044
C	0.0263047	-0.260457	-1.10357
C	-1.08451	0.251892	-0.500278
C	-0.731219	0.445092	0.870116
C	0.564299	0.0337485	0.983274
O	1.04281	-0.400291	-0.212405
H	0.218293	-0.562909	-2.14612
H	-2.0553	0.471722	-0.972871
H	-1.37362	0.844498	1.67129
H	1.24786	0.000113709	1.84749
C	6.09231	-0.900671	0.638492
C	5.73666	-0.573938	-0.652982
N	6.40266	0.526465	-1.07967
C	7.16857	0.881044	-0.0567878
N	7.0175	0.0518631	1.00304
H	5.76346	-1.7164	1.3018
H	5.01143	-1.11249	-1.28454
H	7.85889	1.73953	-0.0303166
H	7.5111	0.121352	1.9265
