18
  This energy is -1.6992 and Call times are: 199502
C	-0.767405	0.626604	-0.552139
C	0.170586	1.178	0.27036
C	0.941027	0.0852212	0.772718
C	0.405829	-1.03749	0.212856
O	-0.638421	-0.725495	-0.599061
H	-1.57141	1.08229	-1.15312
H	0.306335	2.24703	0.500255
H	1.79289	0.138513	1.46955
H	0.673814	-2.10231	0.31086
C	3.86143	-0.87391	-0.575597
C	3.89348	0.457031	-0.934364
N	4.60594	1.18666	-0.0418702
C	5.01434	0.311684	0.867119
N	4.59125	-0.944414	0.589982
H	3.38675	-1.74675	-1.05137
H	3.41528	0.9039	-1.8212
H	5.62555	0.537128	1.75584
H	4.7827	-1.80756	1.15531
