18
  This energy is -0.8979 and Call times are: 10422
C	0.0735548	-0.591509	0.964939
C	1.00052	0.343576	0.608943
C	0.568723	0.862768	-0.649672
C	-0.583982	0.199121	-0.951691
O	-0.901245	-0.692827	0.0233916
H	-0.00439125	-1.24356	1.85038
H	1.89829	0.638173	1.17579
H	1.06515	1.63995	-1.2527
H	-1.26273	0.269472	-1.81749
C	6.08911	0.923543	-0.541237
C	4.80206	0.835944	-0.0544384
N	4.57448	-0.374906	0.509973
C	5.716	-1.03597	0.373837
N	6.66046	-0.295931	-0.253796
H	6.62111	1.74014	-1.05474
H	4.03359	1.62474	-0.100359
H	5.91469	-2.06452	0.715683
H	7.64113	-0.594276	-0.478616
