18
  This energy is -0.9962 and Call times are: 135684
C	0.838752	0.13501	-0.751445
C	1.01556	0.340524	0.585297
C	-0.249629	0.0745483	1.19248
C	-1.08789	-0.270021	0.173185
O	-0.439889	-0.238384	-1.02101
H	1.53428	0.219975	-1.60249
H	1.9438	0.648522	1.09285
H	-0.497373	0.135324	2.26441
H	-2.15274	-0.555134	0.166981
C	5.17619	-0.889429	-0.737508
C	4.57664	-0.654596	0.481727
N	5.07707	0.461356	1.06545
C	5.98362	0.917095	0.21159
N	6.08075	0.137376	-0.891222
H	5.0281	-1.68793	-1.48182
H	3.79195	-1.27039	0.950665
H	6.60485	1.81748	0.344304
H	6.7228	0.2866	-1.70778
