18
  This energy is -0.6573 and Call times are: 170914
C	-0.53581	0.813846	0.580485
C	-0.711015	0.637085	-0.760571
C	0.119126	-0.467923	-1.12105
C	0.728334	-0.868869	0.0315501
O	0.339934	-0.0971535	1.08065
H	-0.970634	1.54182	1.28493
H	-1.35975	1.22578	-1.42891
H	0.241997	-0.906324	-2.12444
H	1.44857	-1.67841	0.234427
C	6.63276	0.71683	0.0347062
C	6.63096	-0.648674	0.225861
N	5.37912	-1.15586	0.115521
C	4.60725	-0.108984	-0.143102
N	5.31608	1.04327	-0.201889
H	7.45055	1.45475	0.0497931
H	7.5105	-1.277	0.441417
H	3.51651	-0.129851	-0.298265
H	4.93521	2.00255	-0.391563
