18
  This energy is -1.5525 and Call times are: 28606
C	-0.599062	0.576355	0.771583
C	-0.0697808	1.17146	-0.335703
C	0.603091	0.135362	-1.05254
C	0.425592	-1.00143	-0.320027
O	-0.30629	-0.750535	0.797297
H	-1.19576	0.982094	1.605
H	-0.145584	2.23351	-0.61925
H	1.15272	0.234366	-2.00239
H	0.765128	-2.03732	-0.484026
C	4.58171	0.989055	0.511043
C	4.31055	-0.211795	1.13199
N	3.88844	-1.13941	0.238754
C	3.8977	-0.516391	-0.931883
N	4.3082	0.769173	-0.820511
H	4.93806	1.95239	0.909198
H	4.41192	-0.425495	2.20852
H	3.61338	-0.954564	-1.90214
H	4.40053	1.4657	-1.59999
