18
  This energy is -1.0682 and Call times are: 128509
C	0.299409	-0.578176	-0.928692
C	-0.797992	-0.904439	-0.187316
C	-0.841112	0.0396365	0.883656
C	0.233744	0.85947	0.702193
O	0.94137	0.496673	-0.399922
H	0.724597	-1.02647	-1.84166
H	-1.50609	-1.72736	-0.375713
H	-1.58929	0.0942227	1.69072
H	0.598935	1.72477	1.27938
C	5.67814	0.230786	-0.810173
C	6.85528	0.919157	-0.60614
N	7.5663	0.379745	0.413664
C	6.83305	-0.639387	0.840664
N	5.68495	-0.770776	0.134821
H	4.86327	0.377861	-1.53673
H	7.20428	1.79536	-1.1765
H	7.08972	-1.322	1.66674
H	4.94162	-1.4972	0.27981
