18
  This energy is -1.2493 and Call times are: 1004
C	-0.376382	0.480341	0.956039
C	0.530623	1.09027	0.140134
C	0.751161	0.186658	-0.943824
C	-0.0405452	-0.895688	-0.694622
O	-0.736154	-0.733365	0.461575
H	-0.838849	0.801117	1.90392
H	0.997533	2.07747	0.286879
H	1.42306	0.333953	-1.80461
H	-0.196156	-1.8322	-1.25496
C	5.51093	0.349579	-0.943215
C	4.28348	0.822898	-0.530308
N	3.87246	0.195687	0.598486
C	4.84123	-0.663469	0.884764
N	5.85162	-0.608911	-0.0150898
H	6.14494	0.61804	-1.80316
H	3.6871	1.60572	-1.02666
H	4.8616	-1.35627	1.74141
H	6.72762	-1.18668	-0.00724315
