18
  This energy is -0.4211 and Call times are: 44168
C	1.08852	-0.124313	0.293383
C	0.0674422	-0.314509	1.17746
C	-1.1343	-0.0692662	0.445486
C	-0.741502	0.249144	-0.821281
O	0.612716	0.220409	-0.932093
H	2.18179	-0.2024	0.411327
H	0.152021	-0.598967	2.23861
H	-2.16673	-0.125773	0.82626
H	-1.32033	0.512288	-1.72181
C	5.49826	-0.0382686	0.616551
C	6.24073	1.0832	0.312949
N	7.33822	0.760641	-0.413673
C	7.27683	-0.555929	-0.560291
N	6.18577	-1.08443	0.0429234
H	4.56057	-0.161791	1.18137
H	6.00419	2.1193	0.605183
H	8.00451	-1.18311	-1.10006
H	5.91514	-2.09802	0.068721
