18
  This energy is -0.5767 and Call times are: 49296
C	0.343997	-0.223293	1.05745
C	1.19922	-0.227461	-0.00506924
C	0.404807	0.0942558	-1.14767
C	-0.865739	0.266621	-0.682502
O	-0.921223	0.0765028	0.662038
H	0.509939	-0.414996	2.13028
H	2.28097	-0.436152	0.0138728
H	0.748157	0.184598	-2.19076
H	-1.80514	0.522555	-1.19948
C	5.40345	-0.423732	-0.4609
C	5.61044	-0.0326477	0.844991
N	6.87951	0.405902	1.02841
C	7.45762	0.287333	-0.159171
N	6.60898	-0.208479	-1.09061
H	4.51328	-0.826547	-0.969694
H	4.86682	-0.0590642	1.65812
H	8.50008	0.548987	-0.402157
H	6.82769	-0.393641	-2.10014
