18
  This energy is -1.2636 and Call times are: 47855
C	-0.57319	-0.737803	-0.64304
C	-1.11256	-0.168571	0.472947
C	-0.10062	0.689221	1.00237
C	0.967802	0.568451	0.163164
O	0.696754	-0.299019	-0.847301
H	-0.984699	-1.4601	-1.36706
H	-2.12179	-0.335941	0.882275
H	-0.169252	1.31916	1.90379
H	1.96431	1.03969	0.175782
C	4.35838	-0.973235	0.566749
C	4.72498	-0.87309	-0.758664
N	5.06144	0.4003	-1.0777
C	4.90417	1.08752	0.0455165
N	4.48159	0.304168	1.066
H	4.02951	-1.8344	1.16989
H	4.75273	-1.69684	-1.49045
H	5.08438	2.16671	0.176301
H	4.28523	0.611377	2.05003
