18
  This energy is -1.2857 and Call times are: 64513
C	-0.558741	-0.740838	-0.652203
C	-0.103491	0.45341	-1.12854
C	0.53761	1.09554	-0.025464
C	0.417534	0.237009	1.02757
O	-0.249323	-0.889594	0.662766
H	-1.10942	-1.56102	-1.14138
H	-0.208594	0.843067	-2.15383
H	1.02841	2.08206	-0.0254531
H	0.758882	0.310287	2.07321
C	3.91127	-0.320683	-0.311307
C	4.30139	0.901663	0.193484
N	5.63318	0.92467	0.443164
C	6.0676	-0.278825	0.0945937
N	5.06743	-1.06662	-0.36652
H	2.92559	-0.699861	-0.624695
H	3.64578	1.76739	0.382001
H	7.10822	-0.635879	0.156519
H	5.15586	-2.05697	-0.702148
