18
  This energy is -1.3991 and Call times are: 54962
C	0.131721	0.842146	0.748225
C	-0.122971	1.07125	-0.572009
C	-0.222233	-0.217216	-1.18039
C	-0.0194361	-1.11994	-0.178221
O	0.198258	-0.490487	1.00644
H	0.284007	1.53262	1.59398
H	-0.230188	2.04944	-1.06773
H	-0.421713	-0.43664	-2.24159
H	-0.0052635	-2.22223	-0.178967
C	4.82626	-1.09673	0.0240859
C	3.59919	-0.67541	0.490929
N	3.436	0.656706	0.302924
C	4.55756	1.06026	-0.278342
N	5.4276	0.0401327	-0.467971
H	5.29836	-2.09191	0.00774425
H	2.8287	-1.30876	0.960041
H	4.79386	2.09156	-0.586265
H	6.37899	0.103214	-0.906315
