18
  This energy is -0.9472 and Call times are: 122759
C	-0.456506	-0.858497	0.58394
C	-0.677795	0.446932	0.911446
C	0.0548285	1.21868	-0.0413341
C	0.659139	0.316723	-0.866962
O	0.357782	-0.956592	-0.499723
H	-0.815995	-1.79698	1.03701
H	-1.29502	0.828174	1.74078
H	0.118575	2.31725	-0.0976073
H	1.31902	0.452047	-1.7396
C	5.88613	-0.409985	-0.193215
C	4.70588	-1.11648	-0.288254
N	3.64106	-0.330411	0.00286953
C	4.15875	0.859218	0.27747
N	5.50882	0.862655	0.173133
H	6.93291	-0.712691	-0.35496
H	4.6036	-2.17932	-0.56167
H	3.5946	1.76245	0.56058
H	6.14662	1.67921	0.339596
