18
  This energy is -0.9531 and Call times are: 79707
C	-1.10885	-0.0210044	-0.237496
C	-0.611154	-0.433611	0.963514
C	0.803984	-0.258245	0.881367
C	1.04613	0.246045	-0.36259
O	-0.110746	0.397347	-1.05955
H	-2.13986	0.0238001	-0.625148
H	-1.18318	-0.822453	1.82124
H	1.54732	-0.484086	1.66273
H	1.98415	0.534854	-0.864543
C	5.24242	-0.325875	-1.12942
C	4.80006	0.862267	-0.587401
N	5.02487	0.903651	0.74836
C	5.6045	-0.254414	1.03393
N	5.7578	-1.03092	-0.0647644
H	5.22744	-0.706859	-2.16294
H	4.32272	1.69038	-1.13623
H	5.93695	-0.584895	2.03117
H	6.18741	-1.98775	-0.0990525
