18
  This energy is -1.6917 and Call times are: 139476
C	-0.454296	0.430075	0.946072
C	0.381408	1.15049	0.144212
C	0.73879	0.280075	-0.930395
C	0.0899281	-0.895394	-0.690349
O	-0.643352	-0.8216	0.45152
H	-0.973007	0.690711	1.88323
H	0.712939	2.1905	0.294388
H	1.40251	0.511049	-1.77906
H	0.0684781	-1.84585	-1.2484
C	3.65651	-0.911219	0.0446643
C	3.66915	0.188023	0.876921
N	4.66324	1.045	0.539441
C	5.26501	0.479558	-0.498234
N	4.69502	-0.701671	-0.834981
H	3.00376	-1.79818	0.0170438
H	2.9788	0.378113	1.71485
H	6.12771	0.887505	-1.0492
H	4.98832	-1.33686	-1.61714
