18
  This energy is -0.8707 and Call times are: 49636
C	-0.574706	0.655164	0.725861
C	0.639527	1.01609	0.220145
C	1.03636	-0.0506079	-0.642878
C	0.0295901	-0.969205	-0.588358
O	-0.962493	-0.554493	0.242783
H	-1.25484	1.16449	1.42819
H	1.19957	1.94072	0.433444
H	1.96525	-0.117459	-1.23175
H	-0.0983921	-1.94408	-1.08684
C	6.43904	0.395656	-0.724263
C	5.09737	0.71138	-0.761436
N	4.41814	0.0748487	0.223441
C	5.33495	-0.633069	0.86915
N	6.56936	-0.473349	0.335943
H	7.28218	0.717153	-1.35616
H	4.6073	1.38706	-1.48125
H	5.15675	-1.28537	1.73919
H	7.45665	-0.925375	0.667079
