18
  This energy is -1.5174 and Call times are: 143090
C	-0.881243	0.695108	0.163203
C	-0.0720315	0.289623	1.18356
C	0.90701	-0.564577	0.590317
C	0.609649	-0.605674	-0.740194
O	-0.479544	0.157912	-1.01877
H	-1.76368	1.35567	0.14824
H	-0.156119	0.564466	2.24728
H	1.73293	-1.08371	1.10261
H	1.08945	-1.13365	-1.5806
C	5.10367	-0.63661	0.852138
C	4.41988	0.551421	1.00099
N	3.97159	1.01007	-0.192829
C	4.37575	0.109999	-1.07892
N	5.0626	-0.902328	-0.498379
H	5.60004	-1.28997	1.58717
H	4.24195	1.08585	1.94839
H	4.19591	0.143307	-2.16556
H	5.48362	-1.73162	-0.98445
