18
  This energy is -1.3594 and Call times are: 183640
C	0.285791	-0.564645	-0.941223
C	0.486862	-1.07638	0.307002
C	0.00619817	-0.0864255	1.21753
C	-0.446168	0.942873	0.445337
O	-0.283174	0.667825	-0.875569
H	0.501312	-0.973006	-1.94224
H	0.92928	-2.05302	0.561076
H	0.00184302	-0.142897	2.31793
H	-0.899443	1.91194	0.711226
C	4.2267	-1.08133	-0.375654
C	3.72928	0.111731	-0.855562
N	4.26211	1.16584	-0.191142
C	5.08694	0.628763	0.697574
N	5.10102	-0.72338	0.626157
H	4.02704	-2.12494	-0.666445
H	2.99548	0.230804	-1.66932
H	5.7049	1.17962	1.42484
H	5.66963	-1.37492	1.22067
