18
  This energy is -0.8818 and Call times are: 210584
C	-0.0975787	0.111298	1.1245
C	0.607251	-0.905069	0.54953
C	0.499093	-0.706924	-0.860845
C	-0.262283	0.413036	-1.02323
O	-0.635395	0.925799	0.178794
H	-0.289073	0.362101	2.18075
H	1.14898	-1.71325	1.0667
H	0.940293	-1.33093	-1.6546
H	-0.604269	0.939538	-1.92938
C	5.27099	0.81017	0.822358
C	4.35019	0.0896387	0.0915395
N	4.96471	-0.757939	-0.768973
C	6.26182	-0.563959	-0.572739
N	6.49808	0.371907	0.37696
H	5.14413	1.57817	1.60186
H	3.25343	0.166169	0.16975
H	7.08162	-1.08055	-1.09743
H	7.4371	0.700958	0.710455
