18
  This energy is -1.3829 and Call times are: 18642
C	0.649528	-0.506096	0.779988
C	1.01631	-0.418623	-0.530811
C	-0.0443645	0.276435	-1.18807
C	-0.965673	0.552345	-0.220887
O	-0.558206	0.0816618	0.987186
H	1.1531	-0.955367	1.65166
H	1.94102	-0.804814	-0.988926
H	-0.105545	0.536296	-2.2571
H	-1.93792	1.07018	-0.263717
C	4.57673	-0.415318	0.731321
C	5.9375	-0.621627	0.814345
N	6.58918	0.00482136	-0.195299
C	5.63633	0.597507	-0.90199
N	4.40538	0.374134	-0.383844
H	3.74589	-0.76283	1.36573
H	6.46073	-1.21127	1.58467
H	5.78462	1.20727	-1.80777
H	3.4941	0.733804	-0.759955
