18
  This energy is -0.86 and Call times are: 159244
C	-0.109451	1.09258	0.284077
C	-1.17351	0.240725	0.234107
C	-0.641977	-1.0264	-0.155731
C	0.699977	-0.837018	-0.309571
O	1.04267	0.45123	-0.045013
H	-0.041526	2.16355	0.536391
H	-2.22703	0.4806	0.450099
H	-1.20144	-1.96431	-0.30209
H	1.50748	-1.52913	-0.599678
C	6.66684	0.0215296	-0.152065
C	5.86159	-1.0957	-0.0847455
N	4.56336	-0.752076	0.0969879
C	4.56322	0.573283	0.142239
N	5.80754	1.08719	-0.00316905
H	7.75428	0.130039	-0.290764
H	6.1941	-2.14355	-0.16405
H	3.6799	1.21752	0.279897
H	6.06807	2.10374	-0.00259329
