18
  This energy is -0.5394 and Call times are: 145941
C	-1.00402	0.281256	0.446374
C	-0.854916	-0.766569	-0.413979
C	0.532572	-0.801105	-0.751323
C	1.10886	0.228663	-0.0673359
O	0.185128	0.900346	0.669255
H	-1.89157	0.68325	0.962019
H	-1.64294	-1.44692	-0.774858
H	1.03421	-1.51356	-1.42576
H	2.15186	0.582604	-0.0210712
C	7.2414	-0.137435	-0.530748
C	6.58463	-1.06099	0.254645
N	5.40531	-0.568502	0.705409
C	5.33076	0.655922	0.201573
N	6.41374	0.962911	-0.551079
H	8.20697	-0.18381	-1.05901
H	6.94058	-2.07386	0.504125
H	4.5053	1.37018	0.352225
H	6.58945	1.86691	-1.05425
