18
  This energy is -1.2285 and Call times are: 86217
C	0.33891	-0.617004	-0.889296
C	-0.808423	-0.891325	-0.204644
C	-0.89062	0.0901539	0.829793
C	0.213739	0.877601	0.685953
O	0.975794	0.460129	-0.359035
H	0.805735	-1.10666	-1.75968
H	-1.52498	-1.70337	-0.407687
H	-1.68358	0.19039	1.58825
H	0.566195	1.75358	1.25489
C	4.34421	-0.886795	-0.410639
C	5.69966	-0.708167	-0.589449
N	6.12825	0.422989	0.0215468
C	5.0428	0.944117	0.577289
N	3.94135	0.191428	0.345221
H	3.6606	-1.67848	-0.756254
H	6.37605	-1.37521	-1.14838
H	4.99824	1.8751	1.16509
H	2.96625	0.391156	0.677734
