18
  This energy is -1.574 and Call times are: 103102
C	-0.0902847	-1.12741	0.0848052
C	0.244351	-0.339515	1.1467
C	0.256044	1.00009	0.651271
C	-0.0724788	0.912547	-0.669631
O	-0.287387	-0.37938	-1.03261
H	-0.219065	-2.21864	-0.00401819
H	0.461206	-0.668646	2.17565
H	0.483767	1.91611	1.21973
H	-0.184989	1.68524	-1.44779
C	5.36526	0.00556484	0.500287
C	4.5957	1.10391	0.180051
N	3.42196	0.730207	-0.384915
C	3.4632	-0.59494	-0.415054
N	4.61453	-1.07987	0.107317
H	6.36079	-0.0776789	0.964526
H	4.86636	2.15932	0.346534
H	2.67741	-1.25958	-0.808769
H	4.88397	-2.09021	0.196062
