18
  This energy is -1.1416 and Call times are: 103776
C	0.4518	0.474469	-0.925828
C	-0.840532	0.69422	-0.549048
C	-1.0336	-0.0636247	0.646157
C	0.157799	-0.679583	0.894241
O	1.07635	-0.362163	-0.0557718
H	1.03797	0.849665	-1.78075
H	-1.58334	1.32655	-1.06138
H	-1.95586	-0.135703	1.24476
H	0.475338	-1.35885	1.70233
C	4.47519	0.388888	0.615291
C	4.44756	-0.240891	-0.610987
N	5.69853	-0.553065	-1.02826
C	6.49919	-0.118602	-0.0645105
N	5.80951	0.457066	0.948667
H	3.66673	0.780312	1.25303
H	3.54739	-0.475615	-1.20213
H	7.59826	-0.196446	-0.0499464
H	6.21413	0.875592	1.82181
