18
  This energy is -0.8823 and Call times are: 2636
C	1.02715	-0.377228	0.298434
C	-0.119416	-0.862158	0.855752
C	-1.18897	-0.150432	0.231553
C	-0.601571	0.706594	-0.652102
O	0.75143	0.58155	-0.624461
H	2.08669	-0.62824	0.47054
H	-0.203564	-1.64275	1.62886
H	-2.26725	-0.26948	0.424469
H	-1.03021	1.44588	-1.34851
C	5.03473	-1.10531	-0.173114
C	4.61516	0.0204194	-0.849761
N	5.24552	1.12917	-0.391696
C	6.05307	0.692947	0.565483
N	5.96266	-0.647401	0.735428
H	4.7482	-2.16452	-0.270575
H	3.86891	0.0524589	-1.66027
H	6.73203	1.31221	1.17356
H	6.49754	-1.2273	1.42744
