18
  This energy is -1.0631 and Call times are: 170088
C	-0.108524	0.270559	1.09609
C	0.741952	0.933461	0.260855
C	0.598224	0.312074	-1.01717
C	-0.327396	-0.675695	-0.850087
O	-0.76969	-0.715335	0.434364
H	-0.33165	0.40256	2.16756
H	1.40409	1.77555	0.518837
H	1.12677	0.576586	-1.94709
H	-0.750505	-1.40829	-1.55686
C	4.27072	-0.146356	-0.82217
C	5.07465	0.959812	-0.645446
N	5.92008	0.787485	0.399572
C	5.64169	-0.420994	0.869361
N	4.65417	-1.02473	0.166574
H	3.47928	-0.363398	-1.55705
H	5.0598	1.87916	-1.25325
H	6.13067	-0.912489	1.72584
H	4.25642	-1.97994	0.341547
