18
  This energy is -1.8605 and Call times are: 169817
C	0.116843	0.925467	0.645181
C	0.184368	-0.336283	1.1588
C	-0.00697906	-1.21945	0.0526714
C	-0.174542	-0.419432	-1.03924
O	-0.101878	0.893489	-0.69577
H	0.207194	1.91498	1.12263
H	0.352096	-0.616932	2.21103
H	-0.0171069	-2.321	0.0767708
H	-0.350431	-0.658765	-2.10085
C	4.55766	0.341337	-1.09645
C	5.3303	0.525378	0.0306272
N	4.72671	0.0056905	1.12704
C	3.58396	-0.498831	0.681837
N	3.43543	-0.321697	-0.652387
H	4.72153	0.625785	-2.148
H	6.31247	1.02383	0.0723262
H	2.8194	-1.00865	1.28992
H	2.62064	-0.630591	-1.23716
