18
  This energy is -1.5766 and Call times are: 133024
C	-0.105767	1.12481	0.100136
C	-0.163387	0.287172	1.17504
C	0.00858776	-1.03118	0.653049
C	0.156118	-0.8828	-0.694761
O	0.0889043	0.427301	-1.04991
H	-0.188087	2.22137	0.022534
H	-0.312078	0.569363	2.22972
H	0.0197454	-1.9744	1.22254
H	0.313083	-1.6206	-1.49867
C	3.75808	-0.926569	-0.575562
C	3.4992	-0.562291	0.728824
N	4.17889	0.560368	1.06671
C	4.85686	0.891297	-0.0239181
N	4.63672	0.0257357	-1.04172
H	3.39148	-1.76802	-1.18475
H	2.83415	-1.08941	1.43218
H	5.52926	1.7576	-0.131787
H	5.05555	0.0713866	-2.00285
