18
  This energy is -1.3207 and Call times are: 68398
C	-0.0824248	-0.958412	-0.600877
C	0.554075	-0.904311	0.604243
C	0.448236	0.451213	1.04182
C	-0.243598	1.10579	0.0654625
O	-0.575647	0.260224	-0.945364
H	-0.25045	-1.79221	-1.30216
H	1.04852	-1.73557	1.13211
H	0.844302	0.879909	1.9764
H	-0.558888	2.15807	-0.026984
C	3.90033	0.725368	0.222562
C	4.23047	-0.42027	0.915143
N	5.32839	-1.01223	0.385369
C	5.67804	-0.236783	-0.632
N	4.84811	0.824037	-0.771506
H	3.08521	1.45313	0.362091
H	3.69612	-0.83031	1.7876
H	6.53331	-0.399386	-1.3075
H	4.91407	1.57803	-1.49842
