18
  This energy is -0.7904 and Call times are: 843
C	0.222677	-1.06111	0.332948
C	1.20859	-0.167712	0.0326472
C	0.542174	1.03967	-0.339163
C	-0.79215	0.777492	-0.233247
O	-1.0055	-0.50078	0.176038
H	0.264194	-2.11132	0.665518
H	2.29605	-0.341493	0.0692814
H	1.0102	1.98813	-0.648124
H	-1.67789	1.40724	-0.418015
C	6.48276	0.590649	0.606915
C	6.89677	-0.706774	0.822408
N	7.85604	-1.06724	-0.0643639
C	8.03646	0.00249753	-0.827085
N	7.23174	1.02865	-0.462367
H	5.73316	1.2125	1.12164
H	6.52048	-1.38922	1.60185
H	8.74499	0.0885349	-1.66662
H	7.18692	1.9772	-0.909039
