18
  This energy is -1.2553 and Call times are: 208324
C	0.718552	-0.378032	-0.791944
C	1.10558	0.47854	0.196423
C	-0.061216	0.719198	0.984325
C	-1.05825	-0.0115567	0.407881
O	-0.599798	-0.687884	-0.678126
H	1.2785	-0.834233	-1.62477
H	2.11178	0.898763	0.354767
H	-0.139545	1.36311	1.87502
H	-2.12179	-0.132906	0.671346
C	4.46578	-0.555938	-0.820847
C	4.7897	-1.02655	0.434043
N	5.53327	-0.123157	1.11778
C	5.67013	0.903984	0.290208
N	5.04445	0.691579	-0.891743
H	3.88384	-1.00551	-1.64107
H	4.50019	-2.00175	0.858332
H	6.21841	1.83671	0.499109
H	5.00726	1.35149	-1.70685
