18
  This energy is -1.9514 and Call times are: 56117
C	0.282882	1.03481	-0.368174
C	0.395627	0.669209	0.941024
C	-0.0497741	-0.686232	1.00821
C	-0.395378	-1.02927	-0.265856
O	-0.19863	0.00977646	-1.11949
H	0.509363	1.98189	-0.884881
H	0.756262	1.29158	1.7757
H	-0.103136	-1.32373	1.90535
H	-0.788629	-1.96815	-0.689075
C	4.84454	0.233577	-1.12727
C	5.72482	-0.214392	-0.165204
N	5.10295	-0.37865	1.02761
C	3.84167	-0.0338923	0.806377
N	3.63526	0.342914	-0.477756
H	4.98827	0.47427	-2.19261
H	6.79751	-0.422021	-0.310392
H	3.02797	-0.0388806	1.54941
H	2.72705	0.658268	-0.898444
