18
  This energy is -0.8921 and Call times are: 162780
C	0.120343	0.60555	-0.951435
C	-1.08123	0.0933624	-0.558672
C	-0.830862	-0.594831	0.667632
C	0.501604	-0.442437	0.915993
O	1.09815	0.288003	-0.0625777
H	0.407168	1.20523	-1.83085
H	-2.04699	0.190432	-1.08019
H	-1.56391	-1.13743	1.28596
H	1.13679	-0.800309	1.74286
C	4.84757	-0.736272	-0.646009
C	4.52443	0.553952	-0.282625
N	5.50821	1.11235	0.463618
C	6.43813	0.172109	0.562805
N	6.0868	-0.961379	-0.0893942
H	4.30158	-1.48519	-1.24145
H	3.59906	1.09193	-0.545532
H	7.39544	0.260841	1.10124
H	6.65093	-1.84359	-0.15798
