18
  This energy is -1.6739 and Call times are: 69900
C	-0.424453	0.684094	-0.79891
C	-0.458623	-0.675092	-0.907636
C	0.162162	-1.17778	0.276444
C	0.520883	-0.0814081	1.00422
O	0.170264	1.06414	0.362507
H	-0.784856	1.48055	-1.47049
H	-0.878827	-1.26456	-1.73833
H	0.318973	-2.2345	0.546347
H	1.02424	0.0155993	1.98016
C	3.48722	-0.926807	-0.513006
C	3.78749	-0.78276	0.824989
N	4.37589	0.413651	1.06767
C	4.4404	1.00956	-0.115273
N	3.91744	0.2419	-1.10056
H	3.01363	-1.75079	-1.07005
H	3.59011	-1.52067	1.61958
H	4.86071	2.0081	-0.316504
H	3.85214	0.489776	-2.11818
