18
  This energy is -0.6383 and Call times are: 96677
C	-1.06912	-0.344829	0.156439
C	-0.631361	0.161178	-1.03213
C	0.747892	0.477617	-0.83811
C	1.03122	0.137048	0.451895
O	-0.0669256	-0.366873	1.07412
H	-2.05676	-0.71899	0.472375
H	-1.2206	0.297884	-1.95311
H	1.44066	0.908452	-1.57875
H	1.96267	0.203181	1.03779
C	5.91625	-1.07292	-0.476355
C	5.06032	-0.50746	0.444937
N	5.45817	0.744628	0.777352
C	6.55674	0.955125	0.0649902
N	6.87437	-0.111128	-0.706898
H	5.91151	-2.0588	-0.967838
H	4.16283	-0.980499	0.875741
H	7.16764	1.87219	0.0705437
H	7.69428	-0.190104	-1.3571
