18
  This energy is -0.7581 and Call times are: 26650
C	0.143127	-0.755038	0.834166
C	-0.727758	-0.960266	-0.195307
C	-0.626474	0.194862	-1.02929
C	0.297365	1.004	-0.435839
O	0.777762	0.439587	0.703312
H	0.399169	-1.37412	1.70962
H	-1.37642	-1.83712	-0.351714
H	-1.18099	0.391691	-1.96089
H	0.694335	1.99216	-0.720792
C	6.39653	-0.610033	0.457372
C	6.47842	0.436425	-0.436699
N	5.24733	0.906597	-0.752702
C	4.4049	0.15468	-0.0573145
N	5.04895	-0.774422	0.688041
H	7.17585	-1.22874	0.930031
H	7.40375	0.860605	-0.859413
H	3.30642	0.241708	-0.0569583
H	4.60613	-1.48468	1.32105
