18
  This energy is -2.0412 and Call times are: 193142
C	-0.40571	0.269057	-1.02441
C	-0.543754	-0.977566	-0.48845
C	0.0867137	-0.924628	0.792106
C	0.554371	0.349672	0.925636
O	0.262487	1.09247	-0.174395
H	-0.734134	0.690847	-1.9885
H	-1.03979	-1.84718	-0.948693
H	0.176692	-1.74503	1.52213
H	1.10318	0.845121	1.74331
C	3.53717	0.813413	-0.808933
C	3.66109	-0.544865	-1.01109
N	3.97268	-1.18415	0.142487
C	4.04179	-0.226104	1.05682
N	3.7871	0.996249	0.532818
H	3.29684	1.63542	-1.50181
H	3.53126	-1.07503	-1.96865
H	4.27519	-0.364354	2.12483
H	3.78115	1.90929	1.0501
