18
  This energy is -0.6079 and Call times are: 211446
C	-0.824899	-0.700297	0.339892
C	-0.57149	-0.455323	-0.977736
C	0.52239	0.46282	-1.0014
C	0.84087	0.697858	0.303862
O	0.0281995	-0.00430543	1.13666
H	-1.57407	-1.34086	0.833523
H	-1.10168	-0.878696	-1.84592
H	1.00895	0.892854	-1.89158
H	1.61372	1.3348	0.764572
C	4.94294	0.162682	0.140837
C	5.95704	0.788778	0.834191
N	7.17251	0.361576	0.413893
C	6.91343	-0.526169	-0.536587
N	5.58351	-0.681519	-0.738471
H	3.84731	0.255054	0.208665
H	5.83346	1.5411	1.63018
H	7.66016	-1.09174	-1.11689
H	5.12728	-1.32286	-1.43258
