18
  This energy is -1.0778 and Call times are: 174854
C	0.541673	-0.9788	-0.186926
C	-0.301784	-0.424032	-1.10409
C	-0.781755	0.784493	-0.513146
C	-0.18923	0.861553	0.712965
O	0.622298	-0.207019	0.928809
H	1.13683	-1.90648	-0.208129
H	-0.560057	-0.825565	-2.09715
H	-1.48616	1.50628	-0.956926
H	-0.261904	1.61542	1.514
C	4.08719	0.377456	0.065396
C	5.04852	0.460884	1.0503
N	6.22217	-0.0737522	0.634081
C	5.98982	-0.487282	-0.604317
N	4.71699	-0.237923	-0.993309
H	3.03459	0.701636	0.0437018
H	4.91629	0.897268	2.05376
H	6.71636	-0.979094	-1.27101
H	4.29104	-0.469286	-1.92406
