18
  This energy is -0.6483 and Call times are: 47823
C	0.129413	0.963752	-0.583812
C	0.865453	0.679235	0.528695
C	0.420753	-0.602838	0.974393
C	-0.547779	-0.988601	0.0949012
O	-0.738694	-0.0438766	-0.863253
H	0.128687	1.83727	-1.25628
H	1.64349	1.30901	0.98927
H	0.785447	-1.16474	1.84924
H	-1.16726	-1.89896	0.042578
C	5.60991	-1.06108	0.327159
C	4.84363	0.0344983	-0.00998168
N	5.62292	1.09392	-0.336848
C	6.86792	0.657241	-0.202996
N	6.91308	-0.636112	0.195487
H	5.32945	-2.07911	0.640992
H	3.74243	0.0794979	-0.0232302
H	7.78368	1.2428	-0.383932
H	7.77634	-1.20648	0.370746
