18
  This energy is -0.5321 and Call times are: 104481
C	0.896781	0.276328	-0.637046
C	-0.33512	0.0406432	-1.173
C	-1.18765	-0.272707	-0.0706786
C	-0.401466	-0.200844	1.04158
O	0.874559	0.133279	0.71427
H	1.85703	0.550276	-1.10408
H	-0.615365	0.083182	-2.23778
H	-2.26032	-0.521425	-0.110855
H	-0.627433	-0.362891	2.10832
C	5.30903	-0.0102815	-0.441325
C	5.78332	-0.765147	0.610518
N	7.09004	-0.499639	0.852366
C	7.42513	0.416457	-0.0460239
N	6.38579	0.744837	-0.849464
H	4.31464	0.0412692	-0.912576
H	5.20605	-1.4966	1.19924
H	8.41795	0.880803	-0.159699
H	6.39789	1.44186	-1.63385
