18
  This energy is -1.3461 and Call times are: 117498
C	0.316772	1.05926	-0.253015
C	0.711554	-0.0173079	-0.991604
C	0.118268	-1.15756	-0.368736
C	-0.586689	-0.677115	0.695494
O	-0.476583	0.674747	0.78127
H	0.529451	2.1358	-0.358366
H	1.35591	-0.00928756	-1.88538
H	0.211171	-2.20939	-0.68356
H	-1.19951	-1.18713	1.4568
C	4.02039	0.876651	-0.0936855
C	4.70275	0.493908	1.04167
N	5.52202	-0.555567	0.78889
C	5.34858	-0.822873	-0.49839
N	4.45291	0.01302	-1.07514
H	3.28224	1.67582	-0.2669
H	4.61859	0.956213	2.03869
H	5.85227	-1.61968	-1.06903
H	4.14636	0.00478753	-2.07874
