18
  This energy is -2.1568 and Call times are: 88751
C	-0.210564	-0.963418	-0.560258
C	-0.334161	0.263036	-1.14413
C	0.0113398	1.21306	-0.135072
C	0.315568	0.483287	0.976345
O	0.185403	-0.847751	0.734672
H	-0.373097	-1.98024	-0.953845
H	-0.638138	0.477237	-2.18134
H	0.0285031	2.3103	-0.234372
H	0.633766	0.788332	1.98677
C	4.2171	0.460197	1.08002
C	5.20873	0.699616	0.152393
N	4.98939	0.0018671	-0.988461
C	3.86596	-0.667868	-0.769424
N	3.3614	-0.425174	0.463504
H	4.06487	0.844392	2.10117
H	6.07852	1.36332	0.285869
H	3.36882	-1.35	-1.47779
H	2.48529	-0.833636	0.87196
