18
  This energy is -1.8766 and Call times are: 62406
C	-0.676111	0.275105	-0.868097
C	-0.505516	-1.01355	-0.455026
C	0.404121	-0.954494	0.644606
C	0.709092	0.365043	0.806432
O	0.0582334	1.13029	-0.108879
H	-1.2845	0.708514	-1.67882
H	-0.973309	-1.91526	-0.881861
H	0.781829	-1.80131	1.23987
H	1.36637	0.88063	1.52574
C	4.23673	1.09657	-0.404879
C	3.47835	0.093925	-0.97119
N	3.54764	-1.04414	-0.238719
C	4.34596	-0.748643	0.77813
N	4.7875	0.530263	0.72301
H	4.41742	2.13826	-0.714356
H	2.88243	0.171311	-1.89517
H	4.64034	-1.43143	1.59138
H	5.42746	1.00079	1.40881
