18
  This energy is -1.4777 and Call times are: 79996
C	-0.348018	-0.706494	-0.816181
C	0.150839	-1.15262	0.372301
C	0.474369	0.0176859	1.12452
C	0.144656	1.07565	0.329308
O	-0.35907	0.651814	-0.859655
H	-0.723836	-1.24704	-1.70039
H	0.278215	-2.20068	0.687638
H	0.902463	0.0574126	2.13904
H	0.218997	2.16347	0.491743
C	3.697	0.850143	0.132457
C	4.76679	0.585933	0.961242
N	5.48828	-0.467474	0.507038
C	4.86844	-0.855292	-0.599314
N	3.78247	-0.0923097	-0.867876
H	2.90727	1.61657	0.182072
H	5.03097	1.13652	1.8788
H	5.16736	-1.69209	-1.25096
H	3.12993	-0.19846	-1.68285
