18
  This energy is -0.9266 and Call times are: 173860
C	0.175049	1.05986	0.363941
C	0.582127	0.633314	-0.865985
C	0.187774	-0.736605	-0.955009
C	-0.425475	-1.02626	0.228375
O	-0.44217	0.0593223	1.04583
H	0.263777	2.03782	0.864918
H	1.10741	1.22409	-1.63355
H	0.346512	-1.41915	-1.80532
H	-0.88545	-1.95441	0.605484
C	4.9759	1.12901	0.331433
C	4.2809	0.558427	-0.71382
N	4.545	-0.767262	-0.810312
C	5.40059	-1.01815	0.171347
N	5.69182	0.0929593	0.888437
H	5.01054	2.16447	0.705825
H	3.59364	1.07956	-1.40007
H	5.84523	-1.99779	0.409705
H	6.33957	0.153633	1.71184
