18
  This energy is -2.1946 and Call times are: 69402
C	0.252914	-0.958167	0.551681
C	-0.0297407	0.206631	1.20263
C	-0.292976	1.17083	0.182257
C	-0.147944	0.51012	-1.00214
O	0.185342	-0.791101	-0.795365
H	0.513854	-1.96106	0.927656
H	-0.0507616	0.370427	2.29204
H	-0.558672	2.23084	0.323248
H	-0.253269	0.848805	-2.04591
C	3.92216	1.02215	0.539389
C	4.1548	-0.243055	1.03565
N	3.77893	-1.19365	0.145925
C	3.31488	-0.520722	-0.89832
N	3.3799	0.818628	-0.709899
H	4.09823	2.01967	0.972397
H	4.58712	-0.487017	2.01973
H	2.91544	-0.959076	-1.82704
H	3.07528	1.56065	-1.38656
