18
  This energy is -1.3415 and Call times are: 106197
C	0.272266	1.01169	0.43446
C	0.263709	0.77171	-0.90819
C	-0.123766	-0.594795	-1.05867
C	-0.317785	-1.06924	0.205303
O	-0.0803721	-0.101606	1.12961
H	0.508093	1.91971	1.01336
H	0.505954	1.48538	-1.71199
H	-0.241677	-1.15128	-2.00234
H	-0.621092	-2.06257	0.574824
C	3.83399	0.0612307	-0.669458
C	3.89206	0.120242	0.706874
N	5.16978	0.0183493	1.14684
C	5.90158	-0.10341	0.0476362
N	5.14246	-0.0832127	-1.07348
H	2.98254	0.11017	-1.36672
H	3.03491	0.234513	1.39031
H	6.99753	-0.210441	0.00656495
H	5.48532	-0.162483	-2.06213
