18
  This energy is -1.4503 and Call times are: 84695
C	-0.856827	-0.680589	-0.298409
C	-0.84387	0.650572	-0.595421
C	0.380442	1.1581	-0.0628878
C	1.00757	0.0922805	0.512537
O	0.266157	-1.03876	0.37808
H	-1.59685	-1.46975	-0.510174
H	-1.61873	1.21816	-1.13535
H	0.743568	2.19743	-0.107833
H	1.97105	0.00929603	1.04174
C	4.60266	1.15998	-0.0245525
C	5.53036	0.494602	0.748612
N	5.486	-0.841059	0.523774
C	4.5344	-1.00367	-0.385416
N	3.97144	0.173154	-0.748387
H	4.35524	2.23018	-0.108107
H	6.23091	0.954362	1.46465
H	4.20952	-1.96277	-0.819952
H	3.20093	0.308127	-1.44792
