18
  This energy is -1.367 and Call times are: 17945
C	0.359499	1.05583	-0.205879
C	-0.468145	0.75616	0.836032
C	-0.692405	-0.652638	0.764544
C	0.0179941	-1.0895	-0.314742
O	0.666527	-0.059455	-0.919242
H	0.795326	2.01097	-0.542044
H	-0.879469	1.45688	1.58027
H	-1.31218	-1.26138	1.44234
H	0.141786	-2.09456	-0.750376
C	3.86895	0.173613	0.540265
C	4.07093	-0.048651	-0.80545
N	5.38799	-0.207653	-1.08216
C	6.00076	-0.0844973	0.0874461
N	5.12817	0.146273	1.09687
H	2.94894	0.343633	1.12182
H	3.28991	-0.0971331	-1.58167
H	7.08661	-0.154537	0.261395
H	5.36563	0.279067	2.11039
