18
  This energy is -1.1414 and Call times are: 122663
C	-0.291594	-1.00783	0.430867
C	-0.96475	0.138852	0.734756
C	-0.309584	1.18066	0.00982869
C	0.706097	0.578636	-0.673058
O	0.731875	-0.75782	-0.42763
H	-0.44015	-2.05075	0.75568
H	-1.83533	0.240838	1.40243
H	-0.571191	2.25099	0.00368687
H	1.46914	0.985285	-1.35691
C	4.59107	0.771795	-0.863583
C	4.16138	-0.536889	-0.801497
N	4.58519	-1.13683	0.337351
C	5.27517	-0.203873	0.979335
N	5.30795	0.964801	0.296168
H	4.44241	1.55334	-1.62557
H	3.55316	-1.05896	-1.55804
H	5.7772	-0.323124	1.95298
H	5.788	1.84939	0.59334
