18
  This energy is -1.4355 and Call times are: 41539
C	0.924526	0.655227	0.0482784
C	0.439406	-0.00497948	1.13876
C	-0.715795	-0.712316	0.685662
C	-0.834624	-0.421912	-0.641711
O	0.158736	0.411957	-1.0478
H	1.79484	1.32026	-0.0763674
H	0.853502	0.00511159	2.1598
H	-1.37545	-1.35969	1.28554
H	-1.57166	-0.741065	-1.39681
C	4.97487	0.948726	-0.586926
C	5.35617	0.554087	0.67799
N	4.72568	-0.588199	1.04429
C	3.95617	-0.901012	0.0105519
N	4.07091	-0.00511102	-0.998302
H	5.27289	1.81203	-1.2029
H	6.07492	1.07311	1.33287
H	3.2889	-1.77506	-0.0603655
H	3.56722	-0.0319837	-1.91854
