18
  This energy is -1.7008 and Call times are: 177348
C	-0.487598	0.95906	-0.358962
C	-0.777544	-0.256623	-0.905239
C	0.0238399	-1.20419	-0.198117
C	0.732755	-0.4839	0.717851
O	0.432867	0.838973	0.633679
H	-0.863403	1.97048	-0.584888
H	-1.4848	-0.465177	-1.72401
H	0.061465	-2.2935	-0.359625
H	1.472	-0.790919	1.47582
C	4.2865	0.52711	1.0487
C	4.94557	-0.612386	0.638432
N	4.60967	-0.940193	-0.632877
C	3.7455	-0.00760559	-1.00986
N	3.51763	0.899988	-0.0311169
H	4.30944	1.08059	2.00089
H	5.65743	-1.20387	1.23697
H	3.24934	0.058177	-1.99156
H	2.87727	1.72964	-0.0846456
