18
  This energy is -0.7373 and Call times are: 121639
C	-0.987172	0.483481	0.279532
C	0.189469	1.17333	0.278019
C	1.1911	0.237079	-0.122358
C	0.538114	-0.942245	-0.330164
O	-0.792886	-0.810023	-0.0893995
H	-2.01686	0.79478	0.520545
H	0.337251	2.23498	0.533242
H	2.26988	0.428501	-0.239281
H	0.902091	-1.93364	-0.646236
C	5.13977	-0.365492	0.573992
C	5.24961	-0.110533	-0.776591
N	6.5023	0.295206	-1.09696
C	7.16708	0.29197	0.0505078
N	6.38928	-0.0990098	1.0877
H	4.28923	-0.706333	1.18551
H	4.44741	-0.212077	-1.5256
H	8.22524	0.567017	0.187895
H	6.68226	-0.183122	2.09186
