18
  This energy is -1.9261 and Call times are: 211414
C	0.772722	0.290432	-0.777786
C	0.48671	-1.01008	-0.482429
C	-0.520859	-0.96883	0.529115
C	-0.761614	0.35325	0.7626
O	0.0196124	1.13653	-0.0268126
H	1.48192	0.738851	-1.49277
H	0.939805	-1.90834	-0.931801
H	-1.00429	-1.82874	1.01997
H	-1.45435	0.859065	1.45508
C	4.39565	0.0358801	-1.1363
C	5.43356	0.71648	-0.535747
N	5.49614	0.441363	0.789736
C	4.50083	-0.406687	1.01064
N	3.80757	-0.682561	-0.119347
H	4.04558	0.0127272	-2.18055
H	6.13838	1.40111	-1.03511
H	4.23517	-0.856496	1.98086
H	2.97979	-1.32193	-0.204537
