18
  This energy is -1.2958 and Call times are: 197826
C	-0.681706	-0.900717	0.101913
C	0.301696	-0.623024	1.00534
C	0.933242	0.571047	0.54116
C	0.280017	0.917624	-0.604944
O	-0.709249	0.0298519	-0.888185
H	-1.41882	-1.7189	0.0519813
H	0.55678	-1.20105	1.90806
H	1.77534	1.1029	1.01243
H	0.421639	1.76087	-1.30074
C	4.89432	0.152968	-1.16212
C	5.68087	-0.778659	-0.518259
N	5.5605	-0.67341	0.827454
C	4.70254	0.319735	1.01771
N	4.27203	0.850754	-0.151161
H	4.73857	0.361804	-2.23248
H	6.33305	-1.52488	-1.00061
H	4.35495	0.698906	1.99221
H	3.59348	1.64306	-0.26551
