18
  This energy is -0.8503 and Call times are: 212298
C	0.510698	0.812071	0.605086
C	-0.589248	1.05637	-0.163555
C	-0.934507	-0.194308	-0.760809
C	-0.0150648	-1.09248	-0.304417
O	0.875122	-0.495101	0.53088
H	1.11827	1.47433	1.24346
H	-1.10568	2.02058	-0.296611
H	-1.77186	-0.392604	-1.44901
H	0.112118	-2.17042	-0.497062
C	5.35717	-0.321551	-1.10252
C	4.13235	-0.418165	-0.476729
N	4.19545	0.0458033	0.794988
C	5.45462	0.428794	0.957512
N	6.19532	0.227743	-0.158079
H	5.68087	-0.595668	-2.11919
H	3.20425	-0.814337	-0.920051
H	5.8875	0.863069	1.87307
H	7.21398	0.448283	-0.280289
