18
  This energy is -0.922 and Call times are: 200366
C	0.854232	-0.670475	-0.327341
C	-0.434542	-0.885859	-0.718551
C	-1.20603	0.151562	-0.111364
C	-0.320601	0.90932	0.597288
O	0.942214	0.421721	0.476636
H	1.7865	-1.21517	-0.549668
H	-0.804781	-1.69419	-1.36941
H	-2.29337	0.307505	-0.197846
H	-0.461784	1.80809	1.2198
C	5.33607	0.868248	0.719928
C	4.69224	-0.298299	1.07461
N	4.45567	-1.07514	-0.0103195
C	4.95086	-0.393115	-1.03416
N	5.49269	0.785471	-0.64565
H	5.68232	1.72294	1.32255
H	4.39418	-0.593339	2.0939
H	4.94326	-0.710435	-2.08938
H	5.94577	1.50005	-1.26641
