18
  This energy is -1.8015 and Call times are: 35227
C	0.108032	1.03756	-0.445204
C	-0.546586	0.0301675	-1.09097
C	-0.471095	-1.1033	-0.225138
C	0.22299	-0.688498	0.873296
O	0.584474	0.616321	0.755868
H	0.300876	2.08484	-0.730251
H	-1.03375	0.0802283	-2.07802
H	-0.888091	-2.10679	-0.407397
H	0.520873	-1.21832	1.79297
C	4.29506	1.02686	-0.417813
C	4.45295	0.538406	0.861884
N	3.86985	-0.677513	0.996187
C	3.35218	-0.942372	-0.19566
N	3.58175	0.0546236	-1.08273
H	4.6287	1.96619	-0.886735
H	4.97716	1.04156	1.69067
H	2.79515	-1.85166	-0.473386
H	3.27482	0.0818127	-2.08588
