18
  This energy is -0.8093 and Call times are: 179956
C	0.557588	0.533042	0.831482
C	1.09662	-0.515741	0.146011
C	0.107176	-0.911056	-0.805219
C	-0.949148	-0.0689467	-0.617061
O	-0.691365	0.819438	0.378596
H	0.955711	1.15206	1.65219
H	2.09122	-0.965842	0.295255
H	0.182093	-1.7286	-1.54014
H	-1.92774	3.45251e-05	-1.1199
C	4.8431	0.0246029	0.806356
C	5.10363	-0.98694	-0.0936703
N	6.16734	-0.682685	-0.876276
C	6.56519	0.513063	-0.463326
N	5.79871	0.982235	0.549584
H	4.07105	0.127327	1.58541
H	4.54314	-1.93085	-0.192361
H	7.4121	1.09037	-0.867897
H	5.91101	1.90053	1.04494
