18
  This energy is -0.649 and Call times are: 94440
C	-0.67185	0.767801	0.49548
C	-0.959067	-0.565562	0.500218
C	0.105612	-1.1974	-0.212074
C	0.949453	-0.194362	-0.589205
O	0.490156	1.0125	-0.165487
H	-1.20678	1.63242	0.921551
H	-1.833	-1.05507	0.959255
H	0.22129	-2.27419	-0.415109
H	1.89592	-0.208879	-1.15422
C	4.79101	-0.736343	-0.128979
C	5.32134	-0.276289	1.05772
N	6.36502	0.559013	0.835206
C	6.48172	0.616937	-0.48451
N	5.55556	-0.146884	-1.11092
H	3.95166	-1.41872	-0.33725
H	4.9696	-0.532114	2.07047
H	7.22794	1.20319	-1.0446
H	5.4416	-0.267146	-2.14716
