18
  This energy is -1.3774 and Call times are: 45100
C	-1.08588	-0.327297	-0.0116879
C	-0.280941	-0.505509	1.0749
C	0.9931	0.0266363	0.709177
C	0.854238	0.48306	-0.568622
O	-0.409007	0.275026	-1.02463
H	-2.14394	-0.582054	-0.187394
H	-0.556688	-0.965551	2.03741
H	1.90157	0.0612197	1.33174
H	1.56889	0.96873	-1.2532
C	4.65858	0.810464	0.84157
C	4.90426	1.04019	-0.495594
N	5.01223	-0.124636	-1.17972
C	4.83421	-1.07338	-0.27043
N	4.61744	-0.560497	0.963892
H	4.51489	1.50248	1.68656
H	5.00555	2.02555	-0.978969
H	4.85254	-2.1597	-0.45429
H	4.44995	-1.10371	1.84601
