18
  This energy is -0.9716 and Call times are: 34939
C	0.607962	-0.787183	0.545094
C	-0.681488	-0.497228	0.882172
C	-1.09954	0.529694	-0.018264
C	-0.0286465	0.776622	-0.826098
O	1.02288	-0.0186459	-0.49616
H	1.3282	-1.50944	0.963239
H	-1.27838	-0.960064	1.68442
H	-2.085	1.02137	-0.0529663
H	0.109923	1.48322	-1.66082
C	5.1565	1.04785	-0.400018
C	4.25259	0.196915	-1.00003
N	4.07531	-0.926316	-0.262846
C	4.86623	-0.772789	0.790482
N	5.5394	0.401566	0.754059
H	5.54153	2.03465	-0.70253
H	3.72517	0.373323	-1.95163
H	4.99056	-1.48945	1.61823
H	6.2228	0.752827	1.46879
