18
  This energy is -0.7814 and Call times are: 63448
C	0.0422002	-0.544374	-0.994121
C	-1.02675	-0.64217	-0.152603
C	-0.710994	0.173004	0.976957
C	0.523038	0.69698	0.725983
O	0.998021	0.269452	-0.473443
H	0.241499	-0.998376	-1.97871
H	-1.94545	-1.22944	-0.311361
H	-1.3362	0.343436	1.86812
H	1.16168	1.37721	1.31307
C	5.44047	-1.06557	-0.235875
C	4.3236	-0.488036	-0.801737
N	4.10458	0.750156	-0.296341
C	5.08187	0.940038	0.579723
N	5.91361	-0.126012	0.652688
H	5.91618	-2.04598	-0.39724
H	3.67189	-0.942588	-1.56562
H	5.23551	1.84126	1.19488
H	6.75804	-0.219082	1.26876
