18
  This energy is -0.9714 and Call times are: 77858
C	-0.577136	0.84313	-0.492388
C	0.537871	1.06405	0.261485
C	0.973115	-0.222943	0.702305
C	0.0856565	-1.11672	0.178896
O	-0.867789	-0.483066	-0.553524
H	-1.24424	1.5357	-1.03144
H	1.00681	2.03582	0.484758
H	1.84661	-0.447426	1.33532
H	0.0241555	-2.21487	0.253203
C	4.46736	-0.825037	-0.105475
C	4.86688	-0.196148	1.05471
N	5.85166	0.701949	0.80948
C	6.06228	0.630486	-0.497868
N	5.25232	-0.275851	-1.09463
H	3.70543	-1.59871	-0.291016
H	4.4622	-0.374345	2.06433
H	6.79751	1.21939	-1.06958
H	5.22711	-0.514696	-2.11618
