18
  This energy is -0.8411 and Call times are: 178504
C	-0.404433	-0.131778	-1.05141
C	0.609888	-0.898357	-0.557566
C	0.832881	-0.439516	0.776546
C	-0.0648572	0.566949	0.980185
O	-0.82861	0.768366	-0.125764
H	-0.907422	-0.128432	-2.03235
H	1.14717	-1.70592	-1.08031
H	1.57743	-0.820589	1.49385
H	-0.257573	1.20873	1.85553
C	6.72386	0.302331	-0.175017
C	6.07984	-0.81166	-0.670405
N	4.78555	-0.846155	-0.270224
C	4.62724	0.242296	0.470609
N	5.76714	0.967908	0.558384
H	7.76069	0.656727	-0.288689
H	6.52589	-1.59112	-1.30941
H	3.69762	0.555905	0.972305
H	5.89732	1.86634	1.08482
