18
  This energy is -1.4966 and Call times are: 95927
C	-0.891355	-0.686381	0.144112
C	-0.259085	-0.552683	-1.05703
C	0.796744	0.384671	-0.840902
C	0.71647	0.74103	0.473228
O	-0.308788	0.0964925	1.09002
H	-1.75553	-1.29799	0.451346
H	-0.510936	-1.06295	-2.00058
H	1.52628	0.745669	-1.58357
H	1.32138	1.43366	1.08118
C	5.27529	0.300687	-0.915784
C	5.32242	0.830433	0.356337
N	4.39997	0.250055	1.1618
C	3.78294	-0.63637	0.392295
N	4.27454	-0.644055	-0.869393
H	5.86347	0.521764	-1.82061
H	6.00548	1.62102	0.707407
H	2.96425	-1.30575	0.701997
H	3.95436	-1.25356	-1.66138
