18
  This energy is -0.7778 and Call times are: 137106
C	0.656504	-0.460286	-0.802209
C	1.07745	-0.304908	0.485827
C	-0.0122964	0.300547	1.18297
C	-1.00297	0.461705	0.2594
O	-0.611737	0.00250444	-0.958421
H	1.15783	-0.880451	-1.68956
H	2.05707	-0.588228	0.903157
H	-0.0455814	0.579993	2.24828
H	-2.01791	0.883972	0.342052
C	6.75158	0.159029	0.503965
C	5.54393	0.669948	0.930211
N	4.53463	0.286055	0.111399
C	5.11394	-0.460183	-0.819277
N	6.44999	-0.56701	-0.626566
H	7.77028	0.257441	0.911536
H	5.3828	1.30869	1.81389
H	4.60665	-0.95247	-1.66458
H	7.12712	-1.10115	-1.22445
