18
  This energy is -1.135 and Call times are: 65936
C	0.601638	-0.886083	-0.373216
C	-0.534542	-1.03425	0.366728
C	-0.997473	0.288742	0.641532
C	-0.103318	1.12857	0.0452586
O	0.879866	0.428157	-0.579064
H	1.29307	-1.62674	-0.80749
H	-0.999959	-1.98027	0.68691
H	-1.89318	0.572422	1.21714
H	-0.0560089	2.22872	-0.00665207
C	4.46735	-0.815798	-0.56508
C	5.70617	-0.985283	0.0160732
N	6.14257	0.16662	0.581038
C	5.17815	1.04736	0.351247
N	4.14621	0.5036	-0.336507
H	3.81338	-1.51732	-1.10705
H	6.2929	-1.91809	0.0378401
H	5.17639	2.10383	0.664465
H	3.26867	0.993708	-0.638148
