18
  This energy is -1.6826 and Call times are: 99065
C	0.421053	-1.03892	0.172505
C	0.193159	-0.164265	1.19398
C	-0.3305	1.01788	0.587003
C	-0.37638	0.761264	-0.751808
O	0.0788773	-0.490249	-1.02286
H	0.818477	-2.06715	0.165384
H	0.375519	-0.334465	2.26724
H	-0.634879	1.94648	1.09607
H	-0.707577	1.37788	-1.60348
C	4.5099	-0.22885	-1.07922
C	4.27571	1.01366	-0.529242
N	3.80343	0.906638	0.736459
C	3.74483	-0.397308	0.970801
N	4.16026	-1.12438	-0.093329
H	4.88799	-0.529145	-2.06937
H	4.43908	1.98543	-1.02304
H	3.40536	-0.873937	1.90451
H	4.2071	-2.1709	-0.155508
