18
  This energy is -0.6703 and Call times are: 208743
C	-0.754859	-0.0520075	-0.844916
C	-1.07267	-0.381859	0.439828
C	0.121832	-0.191159	1.19938
C	1.06414	0.238393	0.311731
O	0.546086	0.329096	-0.941427
H	-1.35663	-0.0465233	-1.76855
H	-2.0502	-0.725037	0.815009
H	0.254584	-0.357082	2.28055
H	2.1244	0.509219	0.444935
C	7.13952	0.177623	-0.234588
C	6.48672	0.446841	0.949692
N	5.17433	0.118574	0.86979
C	5.01357	-0.3525	-0.359384
N	6.16927	-0.33757	-1.06488
H	8.19079	0.311726	-0.535241
H	6.93918	0.87206	1.86036
H	4.07089	-0.721726	-0.794405
H	6.30109	-0.657499	-2.0556
