18
  This energy is -1.005 and Call times are: 144883
C	-0.884298	0.621222	0.34424
C	-0.0850325	-0.0578303	1.21627
C	0.901891	-0.709763	0.415593
C	0.618597	-0.371547	-0.875037
O	-0.469137	0.440844	-0.937211
H	-1.76785	1.25984	0.507828
H	-0.180832	-0.0958329	2.3133
H	1.72343	-1.35373	0.768399
H	1.10826	-0.640029	-1.82551
C	6.22118	0.727251	-0.0873592
C	5.04904	0.785884	-0.811102
N	4.203	-0.210161	-0.452477
C	4.84782	-0.884151	0.490162
N	6.06907	-0.358233	0.746174
H	7.12271	1.36005	-0.105871
H	4.79867	1.52904	-1.58562
H	4.47189	-1.77055	1.02608
H	6.76708	-0.71029	1.44625
