18
  This energy is -0.8747 and Call times are: 186842
C	-0.620966	-0.933446	-0.171697
C	0.0540713	-0.70906	0.992068
C	0.70705	0.550716	0.828662
C	0.373396	0.984951	-0.420533
O	-0.437127	0.0909402	-1.04568
H	-1.25875	-1.7717	-0.496994
H	0.0887128	-1.36488	1.87683
H	1.34863	1.06585	1.56154
H	0.644166	1.89955	-0.973194
C	7.98491	-0.391658	-0.233832
C	7.50987	0.889464	-0.418797
N	6.21154	0.988173	-0.0431512
C	5.88238	-0.227092	0.373271
N	6.91745	-1.09494	0.278153
H	8.97403	-0.837767	-0.423967
H	8.08069	1.74433	-0.816567
H	4.89711	-0.536286	0.757808
H	6.90852	-2.11013	0.543807
