18
  This energy is -2.359 and Call times are: 180659
C	-0.544426	0.0118197	0.994918
C	-0.0540324	1.14585	0.417117
C	0.554168	0.729711	-0.806417
C	0.381747	-0.621886	-0.86829
O	-0.287238	-1.07717	0.223582
H	-1.08813	-0.150869	1.93999
H	-0.114517	2.17243	0.812813
H	1.059	1.36949	-1.54799
H	0.684289	-1.3636	-1.62564
C	3.6138	-0.427549	1.02623
C	4.44979	-1.05806	0.129163
N	4.68959	-0.273742	-0.949657
C	4.00498	0.839105	-0.722724
N	3.33952	0.795368	0.455765
H	3.20819	-0.751747	1.99778
H	4.88421	-2.06484	0.241036
H	3.95612	1.71736	-1.38644
H	2.73063	1.54938	0.858233
