18
  This energy is -2.0676 and Call times are: 186938
C	0.435799	0.0163731	1.047
C	0.452168	-1.10202	0.266424
C	-0.178623	-0.731818	-0.960429
C	-0.524775	0.580121	-0.821262
O	-0.157102	1.05321	0.39858
H	0.808689	0.200962	2.06785
H	0.866841	-2.08871	0.528305
H	-0.350266	-1.37441	-1.8389
H	-1.02957	1.27981	-1.50746
C	3.66171	-1.07314	-0.462976
C	3.67236	0.126333	-1.1429
N	3.85449	1.1673	-0.294541
C	3.95644	0.615721	0.907119
N	3.84673	-0.733053	0.8585
H	3.53964	-2.11007	-0.814263
H	3.55189	0.259274	-2.23041
H	4.11193	1.15314	1.85645
H	3.89367	-1.39383	1.6724
