18
  This energy is -2.9838 and Call times are: 31118
C	-0.226095	-0.743048	0.826536
C	0.200182	0.527024	1.08262
C	0.374397	1.14564	-0.192955
C	0.0392014	0.198981	-1.11592
O	-0.329992	-0.960642	-0.510951
H	-0.485828	-1.5767	1.49945
H	0.37446	0.982567	2.07065
H	0.710607	2.17618	-0.39056
H	0.0218718	0.22607	-2.21783
C	3.80607	-0.672691	0.82983
C	5.12247	-0.267117	0.768552
N	5.34673	0.500884	-0.325245
C	4.17392	0.571488	-0.94019
N	3.21274	-0.119754	-0.283004
H	3.26749	-1.2949	1.56217
H	5.91444	-0.514893	1.49398
H	3.9633	1.11587	-1.87481
H	2.20711	-0.216118	-0.567074
