18
  This energy is -0.9314 and Call times are: 115021
C	-0.299896	1.09143	0.0723756
C	1.00079	0.697448	-0.0432053
C	0.973053	-0.729214	-0.106321
C	-0.342139	-1.0811	-0.0237387
O	-1.13362	0.0182433	0.0858759
H	-0.756492	2.09162	0.152337
H	1.89052	1.34637	-0.0802953
H	1.837	-1.40636	-0.202077
H	-0.837334	-2.06597	-0.0315976
C	7.66397	-0.655563	-0.907113
C	6.37081	-0.259698	-0.638472
N	6.31329	0.488542	0.489951
C	7.566	0.556606	0.919719
N	8.4182	-0.11731	0.11152
H	8.08678	-1.26198	-1.72383
H	5.47828	-0.500576	-1.23865
H	7.91482	1.08676	1.82055
H	9.45579	-0.211787	0.236967
