18
  This energy is -1.0872 and Call times are: 33830
C	0.252663	0.581224	-0.940607
C	1.16279	-0.211406	-0.305164
C	0.480041	-0.765992	0.820186
C	-0.787026	-0.263304	0.773085
O	-0.943508	0.561339	-0.295788
H	0.331562	1.2027	-1.84769
H	2.20988	-0.387851	-0.599379
H	0.892526	-1.45792	1.57198
H	-1.6581	-0.413478	1.43182
C	4.5766	0.821435	0.432476
C	5.36014	0.920906	-0.697708
N	6.0702	-0.21522	-0.901552
C	5.72846	-1.01646	0.0983693
N	4.8304	-0.437241	0.929981
H	3.87962	1.53352	0.902255
H	5.42584	1.79209	-1.36969
H	6.10572	-2.03758	0.269344
H	4.40793	-0.865403	1.7899
