18
  This energy is -0.7511 and Call times are: 12007
C	0.535751	-0.0101331	0.999635
C	-0.0524784	-1.12323	0.474864
C	-0.613798	-0.716874	-0.774101
C	-0.319031	0.608664	-0.902301
O	0.382655	1.05681	0.171857
H	1.0869	0.150816	1.94069
H	-0.0875855	-2.1295	0.922389
H	-1.17065	-1.34544	-1.48748
H	-0.548901	1.33501	-1.69906
C	5.83066	-0.513378	0.656922
C	5.06258	0.579252	0.999516
N	4.20335	0.904247	0.00321863
C	4.43749	0.0166114	-0.953812
N	5.41008	-0.859686	-0.607741
H	6.62042	-1.05106	1.20528
H	5.11302	1.1389	1.94773
H	3.92541	-0.0371631	-1.92804
H	5.77436	-1.65196	-1.19157
