18
  This energy is -1.1787 and Call times are: 161188
C	0.0745107	-0.00544411	1.13173
C	-0.857656	-0.738205	0.457566
C	-0.636389	-0.472458	-0.928268
C	0.411458	0.399238	-0.978627
O	0.858059	0.695308	0.270333
H	0.28079	0.101567	2.20935
H	-1.62418	-1.39952	0.89253
H	-1.19725	-0.886761	-1.78143
H	0.925609	0.87601	-1.82927
C	5.05243	0.86222	-0.464764
C	4.04641	0.156741	-1.09036
N	3.50583	-0.765744	-0.257713
C	4.17394	-0.633054	0.880109
N	5.11722	0.335617	0.805936
H	5.70505	1.67463	-0.821979
H	3.70095	0.296841	-2.12761
H	4.01306	-1.21959	1.79898
H	5.77298	0.629507	1.5707
