18
  This energy is -0.9084 and Call times are: 155568
C	0.95218	-0.417725	-0.453055
C	0.84201	0.882013	-0.0544115
C	-0.48484	1.0236	0.45504
C	-1.06836	-0.202115	0.322742
O	-0.20513	-1.09443	-0.230089
H	1.78916	-0.975672	-0.904073
H	1.61732	1.66274	-0.113208
H	-0.942823	1.93593	0.869775
H	-2.07756	-0.563057	0.580576
C	4.67546	-0.688129	0.23832
C	5.68441	-0.94184	-0.666553
N	6.58938	0.0667227	-0.684828
C	6.14355	0.942787	0.205322
N	4.99242	0.533444	0.789213
H	3.78407	-1.27098	0.519827
H	5.77559	-1.83455	-1.30655
H	6.62119	1.90028	0.468556
H	4.44556	1.0485	1.52197
