18
  This energy is -0.9615 and Call times are: 132474
C	-0.201195	-0.723285	-0.850165
C	0.713217	-0.982231	0.128186
C	0.679892	0.146266	1.00312
C	-0.251942	0.9952	0.482185
O	-0.80009	0.480111	-0.649729
H	-0.513891	-1.30683	-1.73161
H	1.34756	-1.87805	0.22412
H	1.28326	0.299373	1.91229
H	-0.611006	1.98185	0.818116
C	6.49995	0.220789	-0.355618
C	6.11488	-0.605249	0.679046
N	4.76636	-0.626271	0.811542
C	4.31655	0.183644	-0.137316
N	5.32297	0.719118	-0.868048
H	7.49504	0.480604	-0.750361
H	6.78593	-1.18644	1.33232
H	3.25976	0.420161	-0.34102
H	5.2253	1.38671	-1.67182
