18
  This energy is -1.0648 and Call times are: 53100
C	-0.607838	0.794935	-0.533865
C	-1.00769	-0.507323	-0.465912
C	0.00483262	-1.18902	0.275845
C	0.934038	-0.243163	0.595689
O	0.57596	0.974245	0.10916
H	-1.07046	1.67818	-1.00408
H	-1.92375	-0.944068	-0.895075
H	0.0299028	-2.2594	0.536139
H	1.88024	-0.308431	1.15755
C	5.12935	-0.0323291	1.12942
C	4.39444	0.956126	0.509729
N	4.19727	0.669943	-0.800132
C	4.80754	-0.491634	-0.992316
N	5.38483	-0.956389	0.140967
H	5.47701	-0.139973	2.16917
H	4.00294	1.87066	0.984298
H	4.86238	-1.04607	-1.94301
H	5.92426	-1.85033	0.246541
