18
  This energy is -1.4794 and Call times are: 3658
C	-0.174183	-1.11315	-0.130252
C	0.232218	-0.571019	1.05352
C	0.338977	0.834637	0.823629
C	-0.0116097	1.0274	-0.480329
O	-0.328048	-0.151401	-1.07808
H	-0.386171	-2.15462	-0.422899
H	0.436342	-1.10719	1.99424
H	0.642333	1.60502	1.55067
H	-0.0750528	1.94176	-1.09284
C	3.61882	-0.780013	0.0142101
C	4.00442	0.0516896	1.04413
N	5.05902	0.821705	0.681632
C	5.32665	0.46904	-0.568417
N	4.48606	-0.493445	-1.01631
H	2.81546	-1.53049	-0.055965
H	3.54056	0.109944	2.04227
H	6.12705	0.883716	-1.20217
H	4.49353	-0.936895	-1.96739
