18
  This energy is -1.618 and Call times are: 38254
C	-0.263361	-0.800857	-0.758729
C	0.716819	-0.972496	0.174095
C	0.749503	0.236523	0.933912
C	-0.213591	1.04025	0.398327
O	-0.842138	0.422684	-0.63635
H	-0.63963	-1.46453	-1.55448
H	1.35301	-1.86132	0.313178
H	1.41607	0.471472	1.77924
H	-0.544384	2.05881	0.65979
C	4.20575	0.933674	0.653272
C	3.74375	0.62855	-0.609501
N	4.29289	-0.523372	-1.0656
C	5.09253	-0.931318	-0.0894944
N	5.07493	-0.0867091	0.968767
H	3.98489	1.7766	1.32724
H	3.02402	1.21894	-1.19965
H	5.71378	-1.84138	-0.0975211
H	5.61962	-0.189565	1.85983
