18
  This energy is -0.6091 and Call times are: 192886
C	1.07834	-0.299358	-0.184314
C	0.0903732	-1.21708	0.0208246
C	-1.10842	-0.464691	0.21296
C	-0.747197	0.846389	0.108271
O	0.584685	0.965875	-0.134267
H	2.15779	-0.417321	-0.374349
H	0.195265	-2.31384	0.0353844
H	-2.1178	-0.862108	0.406109
H	-1.33575	1.7753	0.185574
C	5.83051	0.540638	-0.977895
C	5.16024	0.455185	0.224012
N	5.87986	-0.242247	1.13629
C	6.99233	-0.588147	0.502739
N	7.01037	-0.13971	-0.774825
H	5.56039	1.02141	-1.93154
H	4.17029	0.884271	0.449267
H	7.82645	-1.16977	0.927216
H	7.77707	-0.282995	-1.4769
