18
  This energy is -1.3347 and Call times are: 94792
C	-0.127719	1.04393	-0.424627
C	-0.894981	-0.00840153	-0.829955
C	-0.441721	-1.13519	-0.07827
C	0.562509	-0.67195	0.720046
O	0.767694	0.656784	0.521612
H	-0.120774	2.10355	-0.728602
H	-1.69943	0.00725541	-1.58276
H	-0.824868	-2.16687	-0.132386
H	1.20012	-1.18013	1.46197
C	4.72693	-0.760215	0.85592
C	5.85765	-0.773588	0.0669669
N	5.84728	0.251627	-0.819226
C	4.71443	0.898556	-0.580948
N	4.00358	0.327459	0.420118
H	4.39684	-1.42554	1.66951
H	6.68075	-1.50462	0.121303
H	4.35655	1.79642	-1.11009
H	3.07781	0.651495	0.793204
