18
  This energy is -1.1866 and Call times are: 12407
C	0.0809036	1.12902	0.0718804
C	0.770213	0.293105	0.900416
C	0.411536	-1.0319	0.505672
C	-0.465292	-0.888712	-0.52924
O	-0.678701	0.424305	-0.807544
H	0.0455151	2.22895	0.00749565
H	1.46187	0.580705	1.7085
H	0.769806	-1.97589	0.946839
H	-0.999744	-1.6324	-1.14287
C	6.81846	-0.768139	-0.787364
C	5.55926	-0.206749	-0.767398
N	5.41725	0.637457	0.283155
C	6.58392	0.599931	0.912529
N	7.46235	-0.233156	0.305976
H	7.28631	-1.48652	-1.47916
H	4.75069	-0.395725	-1.4922
H	6.8486	1.16268	1.8222
H	8.44643	-0.433384	0.610546
