18
  This energy is -0.8344 and Call times are: 36283
C	-1.09502	0.178886	0.235222
C	-0.0980486	0.932909	0.780997
C	1.1215	0.410924	0.25152
C	0.762121	-0.615996	-0.571069
O	-0.587789	-0.77179	-0.592995
H	-2.19022	0.218032	0.354639
H	-0.210185	1.77247	1.48574
H	2.14293	0.7653	0.464121
H	1.36381	-1.30314	-1.18837
C	6.29951	-0.335708	-0.88492
C	6.1708	0.936338	-0.368706
N	5.27447	0.962947	0.647368
C	4.84875	-0.287834	0.761065
N	5.43704	-1.10917	-0.140547
H	6.92301	-0.732043	-1.70205
H	6.70862	1.83538	-0.711209
H	4.10708	-0.657081	1.48758
H	5.2683	-2.13898	-0.251422
