18
  This energy is -2.2683 and Call times are: 50312
C	0.372097	0.234872	1.04536
C	0.25578	-1.04241	0.581249
C	-0.236943	-0.92965	-0.754651
C	-0.378225	0.406581	-0.988958
O	-0.0108184	1.13259	0.0995878
H	0.710344	0.63189	2.01655
H	0.493139	-1.97085	1.12507
H	-0.457567	-1.75329	-1.45253
H	-0.725554	0.960491	-1.87654
C	4.61581	-0.335763	1.12788
C	5.69908	-0.225822	0.281963
N	5.31665	0.188355	-0.950398
C	4.00113	0.334801	-0.869316
N	3.53068	0.0309724	0.36355
H	4.54275	-0.63891	2.18443
H	6.74975	-0.437932	0.53878
H	3.33353	0.661945	-1.68266
H	2.52997	0.0677654	0.677386
