18
  This energy is -1.2595 and Call times are: 198701
C	-0.920829	-0.538953	-0.384714
C	-0.770889	-0.193828	0.926309
C	0.496997	0.457658	1.01658
C	1.00992	0.453136	-0.247251
O	0.157301	-0.151522	-1.11584
H	-1.73686	-1.0558	-0.915945
H	-1.4818	-0.379405	1.74744
H	0.964573	0.877632	1.92161
H	1.95802	0.842766	-0.652883
C	4.49767	-1.03245	0.527451
C	4.82035	0.160234	1.13944
N	4.98443	1.14883	0.227158
C	4.76437	0.571648	-0.946322
N	4.46708	-0.743218	-0.818505
H	4.29442	-2.03317	0.940708
H	4.93771	0.325127	2.2229
H	4.80786	1.06551	-1.93042
H	4.25391	-1.41445	-1.59649
