18
  This energy is -0.7256 and Call times are: 111102
C	0.313507	-0.466369	0.985197
C	-0.862404	-0.780677	0.369717
C	-0.898109	-0.00116385	-0.826612
C	0.259136	0.720679	-0.836583
O	1.0111	0.449026	0.262404
H	0.762808	-0.820175	1.92764
H	-1.62788	-1.49027	0.722742
H	-1.69677	0.0137978	-1.58557
H	0.658758	1.45149	-1.55871
C	5.63959	-0.0619642	-1.15059
C	4.39135	-0.0231724	-0.566183
N	4.48586	0.0470935	0.783869
C	5.78778	0.0518744	1.03604
N	6.52556	-0.0124367	-0.0975968
H	5.94976	-0.119394	-2.20606
H	3.42425	-0.0446259	-1.09449
H	6.25528	0.101162	2.03266
H	7.57294	-0.0226279	-0.162106
