18
  This energy is -1.0728 and Call times are: 189541
C	-1.08125	-0.279948	0.197318
C	-0.715496	0.546842	-0.823964
C	0.706496	0.65731	-0.747459
C	1.08417	-0.111727	0.31382
O	0.00516905	-0.691568	0.902499
H	-2.06836	-0.647123	0.522965
H	-1.38036	1.03042	-1.55759
H	1.36336	1.24357	-1.40997
H	2.07562	-0.325196	0.745917
C	5.36955	-1.14459	0.0484547
C	5.54253	-0.298505	-1.02642
N	5.12292	0.956241	-0.733075
C	4.69127	0.888822	0.519025
N	4.81884	-0.356808	1.03451
H	5.59195	-2.21581	0.177168
H	5.96259	-0.570949	-2.00835
H	4.27211	1.72163	1.10637
H	4.54953	-0.663947	2.00115
