18
  This energy is -0.8827 and Call times are: 70362
C	0.85858	-0.297139	0.678934
C	0.0160002	-1.21431	0.122843
C	-0.918791	-0.465295	-0.655143
C	-0.564928	0.843464	-0.505792
O	0.51849	0.964628	0.30571
H	1.72658	-0.413274	1.34852
H	0.0493969	-2.30853	0.247949
H	-1.75428	-0.863318	-1.25317
H	-0.997599	1.76951	-0.9187
C	6.19295	-0.383076	0.209284
C	5.40827	0.378999	1.04872
N	4.20238	0.639256	0.487808
C	4.23883	0.0409126	-0.695104
N	5.41792	-0.589262	-0.910092
H	7.21398	-0.780017	0.325391
H	5.69063	0.745702	2.04905
H	3.42968	0.0326824	-1.44306
H	5.68989	-1.13159	-1.76635
