18
  This energy is -0.5712 and Call times are: 102974
C	-1.01541	0.314039	0.395888
C	-0.588256	0.638162	-0.858249
C	0.717695	0.0736693	-0.984569
C	0.973305	-0.545576	0.203527
O	-0.0743392	-0.408819	1.05837
H	-1.95517	0.535134	0.928073
H	-1.13769	1.21672	-1.61817
H	1.38213	0.127539	-1.8619
H	1.85065	-1.10992	0.559952
C	6.96823	0.359728	-0.815786
C	7.25435	-0.330166	0.343233
N	6.12743	-0.583141	1.05214
C	5.14592	-0.0522051	0.335634
N	5.60164	0.528101	-0.799778
H	7.6187	0.730412	-1.62388
H	8.25374	-0.649916	0.680641
H	4.07525	-0.0598964	0.596056
H	5.02399	1.01376	-1.52897
