18
  This energy is -0.6179 and Call times are: 63287
C	1.08666	-0.285082	0.15586
C	0.312543	-0.857933	-0.810035
C	-0.973467	-0.247415	-0.693567
C	-0.871684	0.644619	0.333218
O	0.379582	0.634823	0.863548
H	2.14069	-0.44332	0.437353
H	0.616611	-1.63269	-1.5321
H	-1.86474	-0.454705	-1.30738
H	-1.60701	1.33586	0.776764
C	6.68207	0.634901	-0.451606
C	6.10052	0.79122	0.788759
N	5.11006	-0.113398	0.981551
C	5.07728	-0.828199	-0.134965
N	6.00583	-0.415885	-1.03017
H	7.50194	1.17891	-0.946994
H	6.37786	1.54053	1.54802
H	4.39326	-1.66503	-0.349568
H	6.17784	-0.819725	-1.98337
