18
  This energy is -1.2956 and Call times are: 38761
C	-0.791654	-0.753293	0.303701
C	-0.189026	0.0759173	1.20349
C	0.734245	0.86441	0.451185
C	0.614311	0.447431	-0.841919
O	-0.31313	-0.540048	-0.950314
H	-1.56543	-1.52856	0.428139
H	-0.375912	0.127186	2.28818
H	1.40553	1.64858	0.836605
H	1.12518	0.769273	-1.76424
C	3.85387	-0.463623	0.524396
C	4.48424	0.718686	0.849862
N	5.54443	0.946972	0.0372213
C	5.57168	-0.0897726	-0.789242
N	4.57277	-0.968242	-0.53614
H	2.97393	-0.964888	0.957963
H	4.19305	1.41108	1.65649
H	6.30143	-0.255522	-1.59808
H	4.38223	-1.86323	-1.0499
