18
  This energy is -1.0343 and Call times are: 29550
C	0.67462	-0.00420324	0.911741
C	1.06505	-0.522019	-0.288178
C	-0.0399332	-0.333715	-1.17343
C	-1.00806	0.282548	-0.436324
O	-0.588747	0.491465	0.839427
H	1.1962	0.0711112	1.88
H	2.03398	-0.989673	-0.526045
H	-0.0980857	-0.626342	-2.23412
H	-2.02396	0.61987	-0.699797
C	4.52079	0.266124	0.735704
C	4.99575	1.04141	-0.300868
N	6.01791	0.42557	-0.943077
C	6.17647	-0.727388	-0.307332
N	5.29756	-0.870662	0.71276
H	3.71198	0.437204	1.46378
H	4.6192	2.03411	-0.596862
H	6.92101	-1.50344	-0.547387
H	5.22221	-1.69136	1.36241
