18
  This energy is -0.9451 and Call times are: 17493
C	-0.0298531	0.97121	0.585031
C	-0.582664	-0.182988	1.05684
C	-0.345254	-1.16962	0.0516967
C	0.331678	-0.531245	-0.945605
O	0.532922	0.776831	-0.636653
H	0.028702	1.98373	1.01704
H	-1.10521	-0.325319	2.01641
H	-0.647125	-2.22902	0.0770017
H	0.720566	-0.891531	-1.91215
C	4.49794	-0.0844883	0.940782
C	4.16907	0.435603	-0.293111
N	5.2214	0.375628	-1.14489
C	6.19938	-0.17956	-0.442087
N	5.81294	-0.475318	0.821551
H	3.90891	-0.200277	1.86446
H	3.19133	0.853046	-0.584011
H	7.21822	-0.3923	-0.803957
H	6.40269	-0.918007	1.5682
