18
  This energy is -0.7433 and Call times are: 91531
C	-0.198979	-1.11551	0.0495214
C	-1.20355	-0.197925	-0.046659
C	-0.564554	1.07895	-0.0838266
C	0.774092	0.828934	-0.00707811
O	1.01546	-0.505992	0.0749402
H	-0.217239	-2.21625	0.106839
H	-2.28596	-0.399973	-0.0873499
H	-1.05302	2.06375	-0.159064
H	1.64493	1.50484	-0.00147539
C	5.91974	-0.924684	0.109669
C	4.90502	-0.559412	0.968776
N	4.27696	0.560384	0.535059
C	4.89968	0.888554	-0.588839
N	5.89792	0.0239816	-0.888202
H	6.63207	-1.76456	0.136877
H	4.61484	-1.0838	1.89379
H	4.66522	1.75205	-1.23198
H	6.53406	0.0679471	-1.72166
