18
  This energy is -1.2801 and Call times are: 84663
C	0.789675	-0.74921	-0.318588
C	-0.307239	-1.1086	0.408043
C	-1.05368	0.0924363	0.609185
C	-0.347009	1.07974	-0.0122865
O	0.781601	0.583603	-0.584214
H	1.63709	-1.33977	-0.703777
H	-0.564889	-2.11818	0.766443
H	-2.00514	0.199206	1.15455
H	-0.538189	2.1603	-0.117606
C	4.0585	0.802368	-0.182161
C	4.48775	-0.162475	-1.06871
N	5.47452	-0.918113	-0.528506
C	5.65674	-0.423926	0.68854
N	4.82682	0.614824	0.945097
H	3.28642	1.58313	-0.270712
H	4.10313	-0.326906	-2.08845
H	6.38453	-0.784992	1.43298
H	4.77795	1.1713	1.83347
