18
  This energy is -1.7226 and Call times are: 113786
C	-0.134566	-1.07269	-0.342972
C	0.791554	-0.239152	-0.897851
C	0.658547	1.0059	-0.210634
C	-0.337109	0.823288	0.703529
O	-0.832821	-0.440359	0.636625
H	-0.391653	-2.12374	-0.553813
H	1.49754	-0.477176	-1.70965
H	1.24091	1.92515	-0.383672
H	-0.779263	1.50461	1.44888
C	4.11852	-0.647311	0.941726
C	4.74424	0.581352	0.939155
N	4.91355	1.04082	-0.324463
C	4.39484	0.100779	-1.10285
N	3.90251	-0.937766	-0.386868
H	3.82157	-1.31331	1.76744
H	5.07655	1.14452	1.82643
H	4.34939	0.122267	-2.20362
H	3.44366	-1.79996	-0.770707
