18
  This energy is -0.7632 and Call times are: 35640
C	1.00992	-0.0626414	0.512391
C	0.317105	-1.172	0.125474
C	-0.887456	-0.691655	-0.473206
C	-0.824399	0.668835	-0.399284
O	0.327563	1.07033	0.199709
H	1.98544	0.0525097	1.01273
H	0.623556	-2.22313	0.249237
H	-1.70064	-1.2963	-0.905911
H	-1.5249	1.45234	-0.731947
C	5.60871	-0.64515	0.934652
C	4.86824	0.517962	0.940097
N	4.70064	0.996389	-0.316696
C	5.33471	0.133362	-1.09885
N	5.89881	-0.874349	-0.391807
H	5.93872	-1.304	1.75352
H	4.45194	1.0205	1.82835
H	5.41704	0.191597	-2.19614
H	6.4518	-1.67727	-0.780102
