18
  This energy is -1.0754 and Call times are: 68846
C	-0.930845	-0.533191	-0.368287
C	0.217489	-1.19976	-0.0562173
C	1.1483	-0.200412	0.362133
C	0.486595	0.988626	0.268781
O	-0.784397	0.804147	-0.175693
H	-1.9077	-0.890857	-0.733091
H	0.391618	-2.2862	-0.114749
H	2.1876	-0.357962	0.692455
H	0.804866	2.02146	0.486071
C	4.75134	-0.0627744	-0.81298
C	5.97328	-0.700908	-0.841351
N	6.70534	-0.40384	0.259715
C	5.94047	0.415472	0.96846
N	4.75209	0.652019	0.36399
H	3.90939	-0.0666031	-1.52335
H	6.33979	-1.37035	-1.63657
H	6.20167	0.871316	1.93707
H	3.97863	1.26344	0.723429
