18
  This energy is -0.9 and Call times are: 123455
C	0.898611	-0.0809138	-0.687278
C	0.318722	-1.17297	-0.111513
C	-0.765952	-0.672511	0.671517
C	-0.75314	0.681196	0.505125
O	0.256853	1.0599	-0.321621
H	1.76105	0.0158608	-1.36705
H	0.62415	-2.22538	-0.226654
H	-1.46872	-1.25974	1.2842
H	-1.39992	1.47432	0.914862
C	4.31541	-0.0415088	0.455005
C	4.91353	-0.990939	-0.346225
N	6.1704	-0.618625	-0.690007
C	6.35131	0.557306	-0.104276
N	5.26165	0.948634	0.597935
H	3.31668	-0.00172082	0.91814
H	4.4607	-1.93792	-0.682409
H	7.26246	1.17479	-0.156779
H	5.15748	1.83704	1.1467
