18
  This energy is -0.703 and Call times are: 62991
C	-1.09961	-0.269766	-0.0669839
C	-0.221832	-0.525425	-1.07917
C	1.04626	-0.0485283	-0.626801
C	0.831448	0.456456	0.621886
O	-0.473483	0.329633	0.979773
H	-2.18059	-0.463163	0.0296137
H	-0.444941	-1.00203	-2.04724
H	2.00183	-0.081857	-1.1744
H	1.51489	0.926615	1.34791
C	6.82622	0.92595	-0.0176669
C	7.17856	-0.403905	-0.109785
N	6.08596	-1.20377	-0.055347
C	5.05971	-0.373286	0.0700653
N	5.45404	0.921831	0.0976801
H	7.43455	1.84432	-0.0257625
H	8.20156	-0.80057	-0.214551
H	3.99853	-0.660294	0.145941
H	4.83285	1.76264	0.18947
