18
  This energy is -1.6477 and Call times are: 190249
C	0.465171	0.737507	0.725328
C	0.317219	1.01318	-0.602259
C	-0.297854	-0.1416	-1.17521
C	-0.471469	-1.02101	-0.147168
O	-0.0111222	-0.500568	1.02084
H	0.888409	1.33075	1.55248
H	0.611676	1.93705	-1.12558
H	-0.575104	-0.291101	-2.23109
H	-0.904045	-2.03453	-0.117222
C	3.7906	-0.565604	-0.832959
C	3.77631	-0.8231	0.521529
N	4.59932	0.0222076	1.18832
C	5.12221	0.801148	0.251052
N	4.666	0.486495	-0.984448
H	3.25756	-1.04075	-1.67179
H	3.18688	-1.60367	1.0296
H	5.84409	1.61749	0.414452
H	4.92904	0.954776	-1.88599
