18
  This energy is -1.794 and Call times are: 115181
C	-0.061946	1.0974	-0.279798
C	-0.749546	0.572542	0.774767
C	-0.418661	-0.816605	0.804841
C	0.441929	-1.01801	-0.234002
O	0.670924	0.14017	-0.9072
H	-0.0104881	2.12267	-0.681565
H	-1.42227	1.10972	1.46249
H	-0.783833	-1.57062	1.52052
H	0.953782	-1.92559	-0.593925
C	3.77074	-0.255289	1.14158
C	3.91718	0.997805	0.585296
N	4.04191	0.922753	-0.762042
C	3.97311	-0.371976	-1.04055
N	3.80977	-1.12383	0.073735
H	3.64568	-0.579609	2.18691
H	3.93508	1.95471	1.13198
H	4.03667	-0.823999	-2.04348
H	3.72838	-2.16922	0.116132
