18
  This energy is -0.7428 and Call times are: 173036
C	-0.973158	0.497317	-0.303381
C	0.0363604	1.18036	0.308751
C	1.07672	0.22666	0.528388
C	0.611106	-0.954978	0.0310843
O	-0.639262	-0.808076	-0.480786
H	-1.9653	0.821572	-0.658018
H	0.0473167	2.24862	0.578556
H	2.05468	0.408467	1.00234
H	1.06652	-1.9577	-0.0179489
C	6.47648	-0.575028	0.534996
C	5.53647	0.239466	1.13009
N	4.67304	0.739982	0.21331
C	5.07587	0.237904	-0.946118
N	6.15981	-0.56132	-0.805049
H	7.32021	-1.14444	0.956223
H	5.46581	0.474935	2.20452
H	4.61317	0.422949	-1.92892
H	6.6631	-1.07304	-1.57062
