18
  This energy is -1.5315 and Call times are: 7996
C	-0.311303	0.309393	-1.04583
C	-0.875469	-0.750923	-0.399444
C	-0.230402	-0.821418	0.87297
C	0.671011	0.202043	0.891809
O	0.635124	0.903027	-0.271955
H	-0.493451	0.737529	-2.04522
H	-1.66652	-1.41664	-0.780442
H	-0.421867	-1.55266	1.67467
H	1.38641	0.532093	1.66286
C	3.7894	-0.934141	-0.0867192
C	4.93186	-0.8317	0.67842
N	5.50505	0.388432	0.539731
C	4.72117	1.04045	-0.308223
N	3.67298	0.285751	-0.714808
H	3.07483	-1.76122	-0.224125
H	5.35281	-1.61632	1.32805
H	4.86839	2.0725	-0.665182
H	2.91585	0.574821	-1.38149
