18
  This energy is -1.0287 and Call times are: 176135
C	-1.04071	-0.450283	-0.0237718
C	0.0832162	-1.21426	0.0924305
C	1.18019	-0.299529	0.0856197
C	0.629764	0.942673	-0.0341429
O	-0.725597	0.869397	-0.102257
H	-2.10848	-0.721685	-0.0619616
H	0.13464	-2.31184	0.17469
H	2.25124	-0.546877	0.161548
H	1.08832	1.94402	-0.0818092
C	4.72385	0.338351	-0.901905
C	5.37607	-0.868586	-0.76385
N	6.06647	-0.920454	0.401123
C	5.84341	0.249854	0.983571
N	5.0397	1.0442	0.237482
H	4.07882	0.73178	-1.70358
H	5.36084	-1.70288	-1.48396
H	6.24406	0.576994	1.95655
H	4.71838	2.01316	0.480645
