18
  This energy is -1.14 and Call times are: 58807
C	-0.010989	0.604631	0.959532
C	-0.815946	0.90222	-0.10059
C	-0.516833	-0.0697047	-1.10359
C	0.444503	-0.875424	-0.567847
O	0.765441	-0.47813	0.691585
H	0.102251	1.08008	1.94765
H	-1.54701	1.72375	-0.169379
H	-0.969876	-0.151577	-2.10466
H	0.973931	-1.75231	-0.975305
C	4.59646	0.209765	1.14127
C	4.93554	1.02237	0.0802122
N	4.55868	0.469759	-1.09839
C	3.98798	-0.681295	-0.769761
N	3.9861	-0.883969	0.569086
H	4.74147	0.328446	2.22682
H	5.44536	1.9975	0.143981
H	3.55485	-1.41374	-1.46987
H	3.59433	-1.7158	1.07489
