18
  This energy is -1.7828 and Call times are: 148420
C	0.161411	0.126742	1.11547
C	-0.262348	1.14889	0.317973
C	-0.344678	0.607311	-1.00113
C	0.0360366	-0.697984	-0.893264
O	0.348627	-1.00862	0.39235
H	0.365043	0.080099	2.19788
H	-0.493741	2.18074	0.627545
H	-0.652598	1.13577	-1.91765
H	0.125113	-1.49818	-1.64625
C	3.66692	0.968552	0.626636
C	3.88757	0.895457	-0.73245
N	4.12696	-0.380665	-1.12067
C	4.05509	-1.09652	-0.00666505
N	3.7799	-0.328771	1.07427
H	3.4449	1.82344	1.28498
H	3.87833	1.74065	-1.43985
H	4.1957	-2.18644	0.0741961
H	3.67297	-0.658885	2.06465
