18
  This energy is -1.1098 and Call times are: 210103
C	-0.797118	-0.188308	-0.784566
C	-0.600404	1.03905	-0.223087
C	0.473589	0.877085	0.704503
C	0.838368	-0.434957	0.627975
O	0.0728329	-1.10048	-0.276487
H	-1.51372	-0.537607	-1.54596
H	-1.15587	1.96553	-0.440322
H	0.916387	1.65301	1.34945
H	1.61612	-1.00962	1.15723
C	4.63407	-0.472225	1.06516
C	4.24308	-1.00355	-0.14561
N	4.59625	-0.19232	-1.1721
C	5.20403	0.838355	-0.600313
N	5.2522	0.716536	0.747437
H	4.51999	-0.843543	2.09601
H	3.71248	-1.95772	-0.296892
H	5.63253	1.70948	-1.12162
H	5.6791	1.39784	1.42185
