18
  This energy is -0.8727 and Call times are: 160635
C	-0.912918	0.401666	-0.540043
C	0.0842875	1.21458	-0.0871242
C	1.04258	0.352348	0.527981
C	0.54638	-0.911341	0.396645
O	-0.647183	-0.899915	-0.253193
H	-1.85129	0.623733	-1.07426
H	0.139509	2.31136	-0.177151
H	1.98853	0.6477	1.00969
H	0.941377	-1.88898	0.718283
C	5.85946	-0.289577	-1.04409
C	6.0695	0.878976	-0.343014
N	5.38253	0.878154	0.825144
C	4.74874	-0.28648	0.848667
N	5.00396	-1.02671	-0.2561
H	6.24537	-0.637172	-2.01558
H	6.70441	1.72266	-0.65915
H	4.08507	-0.647712	1.65072
H	4.62277	-1.98045	-0.471367
