18
  This energy is -1.1087 and Call times are: 74582
C	0.969974	0.526305	-0.261829
C	0.0426347	1.07676	0.573284
C	-1.02208	0.128162	0.654834
C	-0.651388	-0.918231	-0.137642
O	0.562517	-0.692012	-0.705332
H	1.94685	0.895739	-0.614664
H	0.102361	2.05288	1.08095
H	-1.952	0.222564	1.2383
H	-1.15597	-1.86868	-0.377008
C	7.21336	0.252278	-0.812337
C	6.73187	1.09575	0.166367
N	5.8003	0.475763	0.930769
C	5.70424	-0.74768	0.42819
N	6.53607	-0.931829	-0.6243
H	7.96497	0.40575	-1.60295
H	7.03996	2.14055	0.334632
H	5.04069	-1.54838	0.792619
H	6.64443	-1.80942	-1.18941
