18
  This energy is -0.8948 and Call times are: 154034
C	0.869019	0.489741	0.539778
C	0.934392	-0.783444	0.0549078
C	-0.33498	-1.03766	-0.54857
C	-1.06399	0.102612	-0.379204
O	-0.344254	1.0459	0.283519
H	1.6076	1.10567	1.07864
H	1.7906	-1.47428	0.116075
H	-0.658641	-1.9648	-1.04833
H	-2.09161	0.364822	-0.680021
C	6.02936	-0.994266	0.0209241
C	5.92576	-0.102369	-1.02547
N	5.11525	0.935257	-0.704652
C	4.71755	0.688015	0.536044
N	5.24141	-0.46391	1.01794
H	6.58936	-1.93739	0.123219
H	6.42132	-0.188986	-2.00616
H	4.04294	1.31741	1.13854
H	5.07839	-0.874741	1.96973
