18
  This energy is -1.3211 and Call times are: 64961
C	0.0303873	-0.0890292	-1.13029
C	-0.843974	0.735915	-0.485824
C	-0.579773	0.573213	0.908394
C	0.432716	-0.336792	0.992839
O	0.817686	-0.751858	-0.24269
H	0.189848	-0.291469	-2.20213
H	-1.59923	1.39308	-0.946066
H	-1.08945	1.07915	1.74407
H	0.959787	-0.765616	1.86091
C	3.92934	-0.734098	-0.721483
C	4.67127	0.370595	-1.0825
N	5.19012	0.987933	0.00662766
C	4.77166	0.268954	1.03938
N	4.00806	-0.780256	0.652511
H	3.36957	-1.46623	-1.32496
H	4.84149	0.733239	-2.10932
H	4.99507	0.46631	2.10022
H	3.56115	-1.49309	1.27973
