18
  This energy is -1.6997 and Call times are: 129281
C	-0.557091	0.778321	-0.608496
C	-0.372108	-0.498866	-1.05003
C	0.361764	-1.16556	-0.0218904
C	0.560456	-0.236931	0.957159
O	0.00594092	0.955914	0.615623
H	-1.06515	1.64344	-1.06533
H	-0.717768	-0.928404	-2.00402
H	0.698234	-2.21479	-0.020243
H	1.0735	-0.299457	1.93087
C	4.88928	0.342497	0.959446
C	5.14945	-0.764581	0.179807
N	4.27146	-0.855313	-0.848497
C	3.46966	0.191496	-0.707327
N	3.80109	0.944517	0.368173
H	5.38497	0.731547	1.86304
H	5.95495	-1.49948	0.340858
H	2.624	0.453948	-1.36323
H	3.32065	1.82013	0.690254
