18
  This energy is -1.0814 and Call times are: 70782
C	-0.54519	0.707214	-0.699297
C	0.59665	0.0560427	-1.06337
C	0.976632	-0.729035	0.067729
C	0.0334479	-0.488309	1.02315
O	-0.903567	0.386512	0.571816
H	-1.18886	1.41565	-1.24615
H	1.11895	0.121944	-2.03133
H	1.85212	-1.39286	0.151113
H	-0.0815186	-0.872229	2.05011
C	5.09194	0.307943	-1.13217
C	4.63531	-0.894828	-0.636212
N	4.66412	-0.907256	0.718604
C	5.13682	0.283277	1.06183
N	5.40998	1.05269	-0.0184397
H	5.20917	0.674382	-2.16441
H	4.28559	-1.75387	-1.23168
H	5.30281	0.643515	2.08989
H	5.79136	2.0303	-0.00932736
