18
  This energy is -2.1066 and Call times are: 153681
C	-0.471398	-0.951674	-0.398122
C	0.372002	-0.185364	-1.14767
C	0.751203	0.909792	-0.312828
C	0.106052	0.716039	0.873179
O	-0.645079	-0.416053	0.838792
H	-1.00601	-1.88824	-0.626794
H	0.694728	-0.372524	-2.18445
H	1.42639	1.74057	-0.573632
H	0.0990562	1.30328	1.8061
C	4.72422	0.341336	1.09203
C	5.98975	0.143883	0.581534
N	5.93806	-0.248597	-0.714536
C	4.64539	-0.294454	-1.00698
N	3.87245	0.0525803	0.0492995
H	4.38094	0.65639	2.09025
H	6.93918	0.277586	1.12518
H	4.2099	-0.575684	-1.97934
H	2.82405	0.0938212	0.0699907
