18
  This energy is -0.4701 and Call times are: 211992
C	-1.06601	0.0523611	-0.383783
C	-0.766997	-0.322145	0.893211
C	0.65663	-0.265413	0.994123
C	1.10191	0.138754	-0.230112
O	0.0633863	0.337447	-1.08393
H	-2.02982	0.154553	-0.909026
H	-1.47765	-0.609522	1.68472
H	1.26923	-0.500057	1.87943
H	2.11893	0.319884	-0.614944
C	5.53823	0.506821	-0.0295672
C	6.66221	0.977593	0.615568
N	7.71308	0.140099	0.440154
C	7.24284	-0.846479	-0.310947
N	5.93631	-0.67143	-0.620706
H	4.51732	0.913323	-0.107245
H	6.73371	1.90654	1.20446
H	7.81218	-1.72181	-0.662899
H	5.34017	-1.31135	-1.20068
