18
  This energy is -1.4305 and Call times are: 20918
C	0.0374481	0.0965071	-1.12946
C	1.01818	-0.528597	-0.416873
C	0.619245	-0.446966	0.95218
C	-0.570054	0.220815	0.955342
O	-0.940405	0.560285	-0.307437
H	-0.079796	0.274925	-2.21098
H	1.93097	-0.999905	-0.815337
H	1.16123	-0.842398	1.82624
H	-1.24238	0.512815	1.77873
C	4.65063	1.14868	0.251356
C	4.30346	0.104217	1.08184
N	4.48551	-1.08988	0.467421
C	4.94388	-0.787343	-0.73964
N	5.06102	0.549745	-0.918705
H	4.63521	2.23941	0.405061
H	3.92488	0.190852	2.11335
H	5.20969	-1.50607	-1.53148
H	5.3999	1.03728	-1.784
