18
  This energy is -0.7299 and Call times are: 71519
C	0.162421	-0.720794	0.860509
C	0.656473	0.550507	0.869409
C	0.249616	1.13677	-0.367878
C	-0.457145	0.171972	-1.02364
O	-0.520385	-0.969036	-0.288039
H	0.227013	-1.53546	1.60037
H	1.24807	1.02758	1.66723
H	0.463041	2.15877	-0.720109
H	-0.958655	0.173032	-2.00534
C	4.60135	-0.727377	-0.220106
C	5.23367	-0.535914	0.990124
N	6.22946	0.376908	0.882125
C	6.21496	0.750316	-0.390267
N	5.25122	0.11292	-1.09633
H	3.76288	-1.38035	-0.510147
H	4.98921	-1.04007	1.93929
H	6.88797	1.48701	-0.857789
H	5.03941	0.235492	-2.1168
