18
  This energy is -1.0656 and Call times are: 52003
C	0.651352	-0.227906	0.900111
C	-0.531914	0.442253	1.00567
C	-1.04957	0.533217	-0.322441
C	-0.136941	-0.0893858	-1.12234
O	0.908278	-0.560232	-0.392391
H	1.39278	-0.526376	1.65935
H	-0.993872	0.833309	1.92641
H	-1.99269	1.00882	-0.636167
H	-0.115778	-0.261289	-2.21104
C	5.94901	0.47138	0.979542
C	5.79803	-0.826959	0.540605
N	6.45393	-1.02697	-0.628286
C	7.00969	0.142837	-0.913414
N	6.7346	1.07887	0.0256063
H	5.56579	0.988754	1.87341
H	5.22759	-1.62296	1.04639
H	7.62805	0.36903	-1.79698
H	7.05812	2.07716	0.0267524
