18
  This energy is -1.7799 and Call times are: 191466
C	-0.291687	-1.06254	-0.268952
C	-0.447275	-0.558526	0.988879
C	0.0258352	0.787963	0.931845
C	0.428769	0.987908	-0.355804
O	0.242041	-0.13177	-1.10311
H	-0.51922	-2.05461	-0.692361
H	-0.854365	-1.08238	1.86862
H	0.0584972	1.51566	1.75858
H	0.859521	1.86934	-0.858571
C	3.45956	-0.392476	0.588748
C	4.5899	-1.11094	0.261214
N	5.47575	-0.344388	-0.420097
C	4.89716	0.845098	-0.514869
N	3.6799	0.867155	0.0778995
H	2.54449	-0.678873	1.13112
H	4.78212	-2.16868	0.504297
H	5.32068	1.735	-1.00776
H	3.02815	1.68751	0.137065
