18
  This energy is -1.3691 and Call times are: 165636
C	0.0845351	1.09962	-0.264743
C	1.03571	0.188078	-0.617914
C	0.579647	-1.06814	-0.113895
C	-0.609964	-0.813362	0.502779
O	-0.927732	0.505437	0.420292
H	0.0123559	2.18576	-0.43895
H	1.96525	0.380955	-1.17724
H	1.08528	-2.04291	-0.204743
H	-1.31671	-1.47513	1.02986
C	4.99837	0.461097	-0.959607
C	6.31456	0.0754262	-0.818095
N	6.54924	-0.4151	0.423203
C	5.38307	-0.334046	1.04938
N	4.41612	0.187718	0.257949
H	4.45304	0.896233	-1.81214
H	7.09906	0.142321	-1.58942
H	5.18159	-0.642681	2.08783
H	3.41384	0.352589	0.521602
