18
  This energy is -0.6161 and Call times are: 154706
C	1.12151	0.0547551	0.160083
C	0.514598	0.579898	-0.942759
C	-0.880244	0.316512	-0.784142
C	-1.00257	-0.346331	0.401627
O	0.209998	-0.514825	0.991793
H	2.18006	0.0218681	0.46609
H	1.00042	1.10051	-1.78361
H	-1.69092	0.592312	-1.47756
H	-1.88481	-0.745694	0.928335
C	6.85767	0.357463	0.722303
C	5.563	0.829674	0.677607
N	4.84309	0.192247	-0.27734
C	5.68793	-0.67212	-0.822993
N	6.91554	-0.611085	-0.254812
H	7.71336	0.632925	1.35905
H	5.13547	1.61889	1.3173
H	5.45976	-1.37349	-1.64169
H	7.75205	-1.19107	-0.510005
