18
  This energy is -1.2553 and Call times are: 106293
C	0.984803	-0.14144	0.544572
C	0.884773	0.580565	-0.608284
C	-0.492434	0.529267	-0.983501
C	-1.11242	-0.219556	-0.0268111
O	-0.225328	-0.637398	0.914193
H	1.84833	-0.373334	1.18939
H	1.69911	1.09742	-1.14102
H	-0.958197	0.998443	-1.865
H	-2.16514	-0.522825	0.095931
C	4.5834	-0.0265606	1.1332
C	4.78925	-1.11024	0.305914
N	5.14572	-0.713233	-0.939808
C	5.16095	0.6117	-0.885539
N	4.82895	1.07416	0.343075
H	4.28935	0.0371016	2.19293
H	4.68695	-2.17145	0.585571
H	5.4082	1.29212	-1.71628
H	4.76985	2.07965	0.637632
