18
  This energy is -1.3157 and Call times are: 67086
C	0.195153	0.995789	-0.506676
C	0.725559	0.678567	0.709224
C	0.25896	-0.637942	1.0079
C	-0.515388	-1.009	-0.0518532
O	-0.565428	-0.023332	-0.986177
H	0.282398	1.90189	-1.12846
H	1.37976	1.30846	1.33321
H	0.479459	-1.23174	1.9095
H	-1.07737	-1.93469	-0.258065
C	5.25593	0.429218	-0.996488
C	3.93895	0.0913243	-0.767292
N	3.7659	-0.372328	0.49429
C	4.97094	-0.322262	1.04565
N	5.90355	0.154026	0.187174
H	5.76126	0.832575	-1.88839
H	3.11053	0.173781	-1.48963
H	5.22638	-0.622209	2.07473
H	6.92529	0.288122	0.385477
