18
  This energy is -1.4481 and Call times are: 125545
C	0.297498	0.418269	1.01141
C	1.07848	0.563275	-0.0973781
C	0.376894	-0.0876559	-1.15765
C	-0.770889	-0.572974	-0.603184
O	-0.835852	-0.273157	0.720788
H	0.434702	0.75645	2.05163
H	2.05106	1.07707	-0.162137
H	0.697351	-0.178892	-2.20793
H	-1.60988	-1.1405	-1.03823
C	5.0835	-0.467322	-1.08001
C	6.04116	0.376133	-0.55788
N	5.74399	0.722373	0.718177
C	4.6063	0.0960977	0.986652
N	4.16728	-0.634269	-0.0656864
H	4.9922	-0.944642	-2.06863
H	6.9412	0.741051	-1.07905
H	4.0518	0.137717	1.93798
H	3.29512	-1.21674	-0.101987
