18
  This energy is -0.9199 and Call times are: 126149
C	0.46579	0.742882	-0.719422
C	1.01401	-0.482558	-0.478334
C	0.152991	-1.11664	0.468606
C	-0.845382	-0.222708	0.722586
O	-0.670234	0.918452	0.00558737
H	0.783438	1.56958	-1.37586
H	1.93259	-0.898277	-0.922743
H	0.27125	-2.12174	0.904371
H	-1.72576	-0.278273	1.38372
C	5.57583	1.06573	-0.328731
C	5.60347	0.534559	0.943368
N	5.08962	-0.719306	0.960592
C	4.74452	-0.965063	-0.296043
N	5.01748	0.0804588	-1.11211
H	5.90305	2.04256	-0.718955
H	5.98497	1.03359	1.84906
H	4.28804	-1.89425	-0.673488
H	4.83799	0.130912	-2.14482
