18
  This energy is -1.1385 and Call times are: 154802
C	-0.0777113	-0.954351	-0.607927
C	-0.948423	-0.65672	0.398875
C	-0.530469	0.607255	0.916369
C	0.558752	0.97044	0.180117
O	0.849357	0.0284089	-0.755371
H	-0.0119204	-1.82177	-1.28505
H	-1.79963	-1.26612	0.742639
H	-0.99319	1.17271	1.74114
H	1.20608	1.86171	0.223031
C	5.31596	0.409056	0.839743
C	5.04957	0.996373	-0.378961
N	4.17706	0.251289	-1.10014
C	3.90321	-0.794281	-0.331751
N	4.56531	-0.745345	0.848428
H	5.96493	0.720509	1.67363
H	5.4713	1.94439	-0.750799
H	3.22478	-1.62501	-0.584453
H	4.51619	-1.45213	1.62257
