18
  This energy is -1.1708 and Call times are: 24563
C	-0.882659	0.70508	0.100871
C	-0.309199	0.0940465	1.17705
C	0.75486	-0.7021	0.653552
C	0.737699	-0.507298	-0.696311
O	-0.255951	0.349217	-1.05135
H	-1.73038	1.40556	0.0237077
H	-0.605743	0.193939	2.23354
H	1.44735	-1.34222	1.22346
H	1.37052	-0.914576	-1.50187
C	5.60165	0.897745	-0.646391
C	4.28478	0.529186	-0.469906
N	4.18457	-0.553343	0.339169
C	5.43453	-0.855206	0.663379
N	6.32589	-0.00961768	0.094127
H	6.05939	1.71427	-1.22717
H	3.40517	1.02498	-0.911869
H	5.75344	-1.6852	1.31425
H	7.36979	-0.0395186	0.197233
