18
  This energy is -0.4987 and Call times are: 12503
C	-1.05555	-0.290278	-0.296558
C	0.0216995	-1.08426	-0.560178
C	1.15639	-0.388449	-0.0420542
C	0.672357	0.769307	0.492446
O	-0.676597	0.845805	0.345874
H	-2.12899	-0.419284	-0.511819
H	0.0176949	-2.06185	-1.0685
H	2.20706	-0.719289	-0.0687867
H	1.17772	1.60845	0.998105
C	5.86558	0.735386	-0.747461
C	5.45976	-0.537553	-0.406764
N	6.31265	-1.10052	0.483265
C	7.24404	-0.180331	0.693917
N	7.01912	0.944787	-0.0251872
H	5.42968	1.48215	-1.43001
H	4.56683	-1.05984	-0.787213
H	8.11276	-0.278382	1.3647
H	7.61075	1.8115	-0.0313447
