18
  This energy is -0.8442 and Call times are: 207308
C	0.907763	0.425685	-0.530244
C	0.197552	-0.626738	-1.02862
C	-0.854374	-0.866799	-0.0927034
C	-0.694118	0.0601189	0.894978
O	0.377225	0.857768	0.643998
H	1.79795	0.952788	-0.911011
H	0.394654	-1.17864	-1.96171
H	-1.63503	-1.64184	-0.155861
H	-1.26758	0.253202	1.81645
C	4.92447	0.811037	-0.354779
C	6.23561	1.02538	0.0141649
N	6.83974	-0.135087	0.367513
C	5.90694	-1.06581	0.218343
N	4.73433	-0.54564	-0.215268
H	4.13946	1.50479	-0.695374
H	6.7565	1.99657	0.0317255
H	6.02909	-2.14358	0.412552
H	3.84902	-1.07497	-0.408389
