18
  This energy is -0.8394 and Call times are: 186170
C	1.11132	-0.189974	0.12362
C	0.244195	-0.216802	1.17612
C	-1.04444	0.0651049	0.628331
C	-0.851023	0.239316	-0.710555
O	0.459595	0.0871225	-1.03633
H	2.20076	-0.349522	0.0696624
H	0.487594	-0.415205	2.23229
H	-1.99881	0.128733	1.17533
H	-1.55459	0.472014	-1.5267
C	5.041	-0.620888	-0.751868
C	4.96886	0.735203	-0.513211
N	5.87777	1.11671	0.416759
C	6.51136	0.00152901	0.753749
N	6.04326	-1.07371	0.0767448
H	4.46911	-1.27395	-1.43009
H	4.27726	1.44517	-0.995385
H	7.32597	-0.0842664	1.49083
H	6.37973	-2.0637	0.166046
