18
  This energy is -0.7631 and Call times are: 132220
C	1.12225	-0.131785	0.097904
C	0.236089	-0.807677	0.884199
C	-1.06152	-0.380748	0.467001
C	-0.853762	0.518345	-0.53741
O	0.474062	0.682536	-0.776021
H	2.22401	-0.14227	0.0623744
H	0.47247	-1.53402	1.67833
H	-2.03126	-0.710264	0.873349
H	-1.5575	1.10189	-1.15343
C	5.4078	0.949319	0.0688627
C	6.7242	0.85437	0.467873
N	7.21469	-0.38864	0.242363
C	6.20641	-1.06226	-0.294506
N	5.09471	-0.299377	-0.419936
H	4.6954	1.7891	0.0972143
H	7.32885	1.66049	0.914434
H	6.22787	-2.11657	-0.614196
H	4.1704	-0.601546	-0.814387
