18
  This energy is -1.2395 and Call times are: 203973
C	0.85711	-0.535447	-0.514839
C	1.05358	0.331842	0.519368
C	-0.244861	0.794494	0.893707
C	-1.12016	0.169083	0.0552073
O	-0.464462	-0.646877	-0.811556
H	1.56545	-1.12887	-1.11596
H	2.01628	0.617176	0.973121
H	-0.489051	1.50986	1.6954
H	-2.21847	0.219389	-0.0250587
C	5.58434	0.607518	0.883984
C	5.75073	-0.734174	0.613203
N	5.04491	-1.10253	-0.483451
C	4.44294	0.0064336	-0.891452
N	4.73649	1.06511	-0.0998568
H	5.99556	1.24771	1.6806
H	6.36742	-1.44301	1.18948
H	3.77631	0.0992508	-1.76393
H	4.38515	2.04737	-0.213856
