18
  This energy is -1.5208 and Call times are: 13551
C	-1.10402	-0.139406	-0.219336
C	-0.656452	0.48951	0.905174
C	0.7694	0.468063	0.823911
C	1.06728	-0.172065	-0.343084
O	-0.0648685	-0.549953	-0.993047
H	-2.12322	-0.355356	-0.579685
H	-1.26894	0.924856	1.71105
H	1.48223	0.883474	1.55425
H	2.03201	-0.417857	-0.816503
C	4.39188	1.05737	0.0942496
C	5.12506	0.583802	-0.973141
N	5.56285	-0.678039	-0.74378
C	5.10301	-0.986115	0.461317
N	4.39079	0.0273997	1.00823
H	3.88764	2.02223	0.262506
H	5.346	1.13001	-1.90464
H	5.25846	-1.94003	0.990569
H	3.92625	0.028411	1.94922
