18
  This energy is -0.6595 and Call times are: 208493
C	-0.624826	-0.718271	-0.616506
C	-1.15934	0.381645	-0.01248
C	-0.0750548	1.02462	0.659099
C	1.02634	0.260855	0.40618
O	0.70894	-0.807645	-0.371366
H	-1.08155	-1.50464	-1.23962
H	-2.21162	0.707525	-0.0373479
H	-0.119489	1.94814	1.25846
H	2.07829	0.36912	0.717498
C	5.0585	0.695817	-0.120442
C	5.31787	-0.173045	0.918282
N	6.49556	-0.817619	0.733648
C	6.965	-0.350409	-0.415248
N	6.13483	0.564715	-0.969273
H	4.21238	1.37547	-0.309358
H	4.67635	-0.346375	1.79763
H	7.91164	-0.644264	-0.896663
H	6.28288	1.0768	-1.87321
