18
  This energy is -2.207 and Call times are: 47919
C	-0.465463	0.424356	0.943222
C	-0.544026	-0.898762	0.621411
C	0.151202	-1.04163	-0.618091
C	0.593237	0.206796	-0.944302
O	0.225607	1.1144	-0.0019065
H	-0.854423	0.991578	1.80474
H	-1.04164	-1.69434	1.19894
H	0.299802	-1.97	-1.19267
H	1.17162	0.575234	-1.80742
C	4.27649	0.116537	1.09186
C	5.57321	0.338722	0.679162
N	5.70948	0.10816	-0.649289
C	4.5019	-0.255676	-1.05917
N	3.60293	-0.266169	-0.0465786
H	3.80122	0.200865	2.08208
H	6.41288	0.661259	1.31615
H	4.22064	-0.525217	-2.08993
H	2.5865	-0.51788	-0.115577
