18
  This energy is -0.6715 and Call times are: 78427
C	-0.855511	-0.553594	0.498031
C	-0.10032	-1.1133	-0.490297
C	0.860831	-0.122304	-0.85668
C	0.608139	0.9555	-0.0598992
O	-0.436776	0.709631	0.773595
H	-1.70754	-0.945125	1.07768
H	-0.209174	-2.12275	-0.918386
H	1.64536	-0.210631	-1.62532
H	1.09345	1.94284	0.00996536
C	5.60382	-1.09596	-0.417994
C	4.8879	0.0103026	-0.823938
N	5.25576	1.113	-0.127331
C	6.19631	0.692414	0.707595
N	6.44214	-0.63217	0.5711
H	5.57695	-2.14542	-0.751833
H	4.11254	0.0325636	-1.60698
H	6.73786	1.3124	1.44011
H	7.13865	-1.19804	1.11509
