18
  This energy is -0.8451 and Call times are: 194361
C	-0.433511	-1.04583	0.0686922
C	0.905385	-0.816793	-0.0548992
C	1.05583	0.602522	-0.109914
C	-0.204414	1.11552	-0.0150836
O	-1.12636	0.12306	0.0946554
H	-1.01102	-1.98158	0.146702
H	1.70669	-1.5716	-0.102547
H	1.99697	1.16696	-0.208696
H	-0.572601	2.1546	-0.0136205
C	6.20769	-0.85755	0.778823
C	4.9761	-0.392586	0.368775
N	5.10789	0.603825	-0.54024
C	6.41626	0.756428	-0.693536
N	7.12241	-0.101583	0.0802588
H	6.48857	-1.64657	1.49443
H	3.99479	-0.758232	0.712546
H	6.91111	1.48161	-1.35947
H	8.16758	-0.176645	0.137205
