18
  This energy is -0.5743 and Call times are: 93070
C	1.12064	-0.174838	0.00228328
C	0.232111	-1.12624	0.409375
C	-1.06235	-0.540584	0.2628
C	-0.850584	0.717009	-0.220922
O	0.476824	0.957292	-0.386044
H	2.22137	-0.180409	-0.0578064
H	0.464894	-2.13888	0.776094
H	-2.03276	-1.00885	0.49328
H	-1.55097	1.52633	-0.484956
C	7.21614	-0.345106	0.142196
C	6.08176	-1.0557	0.472913
N	4.96134	-0.355378	0.171709
C	5.39898	0.785339	-0.343906
N	6.75142	0.839848	-0.383257
H	8.28555	-0.59061	0.240309
H	6.05168	-2.06116	0.92346
H	4.77223	1.61508	-0.708513
H	7.33482	1.63355	-0.745101
