18
  This energy is -0.7168 and Call times are: 9620
C	0.66687	0.854844	-0.333057
C	1.16547	-0.361402	0.0309724
C	0.033523	-1.1593	0.380506
C	-1.05687	-0.360204	0.199215
O	-0.688605	0.87337	-0.23632
H	1.16529	1.77659	-0.675436
H	2.22416	-0.666119	0.0513183
H	0.0400801	-2.20566	0.725741
H	-2.13344	-0.548659	0.343178
C	5.2153	-0.769571	-0.420839
C	6.24805	-1.03513	0.453264
N	6.95732	0.0867342	0.726871
C	6.36683	1.04463	0.0251748
N	5.31125	0.578747	-0.683557
H	4.44459	-1.42286	-0.859871
H	6.4941	-2.01613	0.891402
H	6.66652	2.10456	-0.00597904
H	4.6852	1.13808	-1.31322
