18
  This energy is -1.5337 and Call times are: 183896
C	-0.082815	-0.636275	-0.935252
C	-0.757059	0.540486	-0.790332
C	-0.400944	1.03881	0.500007
C	0.45948	0.122576	1.02969
O	0.665064	-0.90702	0.166739
H	-0.0513691	-1.36373	-1.76294
H	-1.43698	1.01046	-1.51898
H	-0.749858	1.97197	0.970717
H	0.986424	0.0884901	1.99737
C	3.74448	0.999982	0.421463
C	3.82699	0.621382	-0.90179
N	4.41111	-0.595074	-1.02647
C	4.68992	-0.969705	0.214715
N	4.30741	-0.0420405	1.12395
H	3.33856	1.90693	0.897079
H	3.4755	1.20417	-1.76878
H	5.17368	-1.91336	0.514266
H	4.41849	-0.104654	2.16559
