18
  This energy is -2.2362 and Call times are: 69660
C	0.336027	-0.572482	0.919647
C	-0.272894	-1.18169	-0.137923
C	-0.540483	-0.146182	-1.08462
C	-0.0714596	1.0044	-0.52199
O	0.467139	0.762624	0.702129
H	0.718295	-0.972736	1.87302
H	-0.509858	-2.25282	-0.241034
H	-1.02617	-0.254809	-2.06768
H	-0.0615157	2.04496	-0.885851
C	3.75644	-0.986622	-0.3409
C	5.03586	-0.878008	0.161515
N	5.3391	0.410533	0.451722
C	4.25193	1.09868	0.130566
N	3.26953	0.301395	-0.351953
H	3.17731	-1.8602	-0.680038
H	5.74559	-1.70631	0.319801
H	4.12156	2.18846	0.228555
H	2.3182	0.606321	-0.673263
