18
  This energy is -0.8229 and Call times are: 176936
C	0.103775	-0.952365	-0.607151
C	1.10493	-0.0303713	-0.517777
C	0.603679	1.01097	0.321547
C	-0.659536	0.633404	0.670978
O	-0.981288	-0.563179	0.112699
H	0.0405503	-1.91325	-1.14376
H	2.0969	-0.0787227	-0.995021
H	1.12973	1.93055	0.624447
H	-1.42021	1.12144	1.30221
C	5.10697	0.593589	-0.485014
C	6.4515	0.774572	-0.731206
N	7.20227	-0.0827993	0.00212232
C	6.32682	-0.792972	0.700596
N	5.05015	-0.423	0.442082
H	4.21627	1.0994	-0.890418
H	6.89331	1.50843	-1.42483
H	6.5665	-1.59623	1.41583
H	4.18238	-0.832535	0.866938
