18
  This energy is -0.7511 and Call times are: 74710
C	-0.370062	-0.3273	-1.02095
C	0.702	-0.909891	-0.411318
C	0.855371	-0.235395	0.838342
C	-0.136506	0.699828	0.882047
O	-0.894429	0.65776	-0.245248
H	-0.852246	-0.520419	-1.99329
H	1.32255	-1.73213	-0.802397
H	1.61848	-0.430692	1.60881
H	-0.405288	1.44521	1.64848
C	4.84737	-0.0032174	0.81124
C	5.70559	1.03503	0.516877
N	6.56426	0.693156	-0.47424
C	6.23998	-0.552445	-0.793523
N	5.21057	-1.01728	-0.0466412
H	4.03112	-0.0893377	1.54598
H	5.72059	2.02467	1.00188
H	6.72376	-1.17079	-1.56672
H	4.77256	-1.96886	-0.109164
