18
  This energy is -1.0905 and Call times are: 152274
C	-0.984447	-0.484014	-0.288089
C	-0.921409	0.648599	0.469269
C	0.468309	0.944087	0.615853
C	1.13183	-0.0340407	-0.0648695
O	0.260224	-0.914711	-0.623207
H	-1.84203	-1.07358	-0.651691
H	-1.76856	1.21878	0.883185
H	0.912896	1.78893	1.16602
H	2.2079	-0.212467	-0.224514
C	5.22714	0.370951	-1.11658
C	5.73173	-0.814752	-0.626035
N	5.52704	-0.917473	0.709652
C	4.89786	0.200253	1.04645
N	4.69373	1.00989	-0.0195751
H	5.21044	0.791253	-2.13472
H	6.23982	-1.59795	-1.21195
H	4.56374	0.476511	2.05951
H	4.21948	1.94599	-0.0118879
