18
  This energy is -1.3109 and Call times are: 99257
C	-0.689399	0.815242	0.382767
C	0.391552	1.08292	-0.404805
C	0.999793	-0.180539	-0.676541
C	0.236835	-1.10876	-0.0310361
O	-0.799077	-0.518253	0.621038
H	-1.44801	1.47667	0.832527
H	0.726948	2.07096	-0.758879
H	1.90054	-0.366865	-1.28319
H	0.324534	-2.20531	0.0406303
C	4.55684	0.599528	-0.782308
C	5.79492	0.0299461	-0.991794
N	6.24568	-0.58513	0.128478
C	5.29087	-0.397837	1.02952
N	4.25128	0.310911	0.528997
H	3.89372	1.17077	-1.45126
H	6.37101	0.0517888	-1.9312
H	5.30185	-0.758311	2.07076
H	3.37874	0.587804	1.04208
