18
  This energy is -1.2865 and Call times are: 145811
C	-0.85717	-0.652765	0.354342
C	-0.508805	0.503308	0.988781
C	0.597933	1.03256	0.25725
C	0.82818	0.153191	-0.759639
O	-0.0511882	-0.882081	-0.71562
H	-1.64862	-1.39127	0.56285
H	-0.983564	0.939613	1.88228
H	1.15188	1.96081	0.470795
H	1.57665	0.151094	-1.56898
C	5.09359	0.909239	-0.453899
C	4.48821	-0.114709	-1.15117
N	3.89304	-0.994137	-0.309209
C	4.1283	-0.517574	0.905765
N	4.84849	0.628621	0.871758
H	5.6625	1.78842	-0.79584
H	4.47021	-0.23468	-2.24667
H	3.79623	-0.968319	1.85486
H	5.16068	1.19552	1.69785
