18
  This energy is -1.0822 and Call times are: 21721
C	1.05086	0.225184	0.362476
C	0.0473389	1.14754	0.413278
C	-1.10657	0.4999	-0.124473
C	-0.706322	-0.761048	-0.456416
O	0.608336	-0.946157	-0.165866
H	2.10901	0.278549	0.666958
H	0.113076	2.18037	0.79149
H	-2.11338	0.930749	-0.246096
H	-1.25372	-1.60881	-0.90016
C	4.92024	-0.836031	0.808597
C	4.458	-0.828137	-0.490408
N	4.8535	0.291787	-1.14299
C	5.55842	0.976061	-0.252211
N	5.62783	0.337943	0.940089
H	4.79974	-1.56952	1.62163
H	3.8462	-1.61046	-0.96845
H	6.04581	1.94993	-0.42034
H	6.12579	0.673552	1.8007
