18
  This energy is -1.1437 and Call times are: 90613
C	0.0648515	-0.0330822	-1.13186
C	0.788608	-0.869729	-0.334002
C	0.440828	-0.527774	1.00847
C	-0.464751	0.487649	0.912472
O	-0.706089	0.802613	-0.387361
H	0.0103846	0.0659583	-2.22843
H	1.49639	-1.64946	-0.658295
H	0.825348	-0.98966	1.932
H	-1.00312	1.06249	1.68382
C	4.46921	-0.524181	0.75913
C	4.12701	0.356576	-0.245016
N	5.22236	0.766724	-0.929492
C	6.24021	0.142784	-0.352171
N	5.8379	-0.647355	0.671261
H	3.85607	-1.05434	1.50514
H	3.10939	0.703439	-0.487876
H	7.30066	0.228608	-0.639075
H	6.45166	-1.24074	1.28154
