18
  This energy is -0.7609 and Call times are: 49008
C	0.358545	-0.738568	0.782536
C	-0.884623	-0.810109	0.22595
C	-0.961247	0.27434	-0.70045
C	0.241862	0.912838	-0.628195
O	1.06012	0.307703	0.272514
H	0.856893	-1.36385	1.54144
H	-1.669	-1.55211	0.445707
H	-1.81684	0.54033	-1.34178
H	0.633596	1.79646	-1.15829
C	6.31926	-0.584483	-0.0676351
C	5.86797	0.171992	0.993131
N	4.64986	0.704549	0.730243
C	4.34663	0.280073	-0.488975
N	5.3213	-0.500489	-1.01273
H	7.24895	-1.15753	-0.21203
H	6.39947	0.343054	1.94344
H	3.42397	0.51095	-1.04541
H	5.3175	-0.955082	-1.95856
