18
  This energy is 0.112 and Call times are: 69435
C	-0.592253	-0.644276	0.721488
C	-1.19266	0.142121	-0.217376
C	-0.131893	0.789332	-0.921655
C	1.02309	0.341302	-0.350994
O	0.760717	-0.534952	0.654167
H	-1.01088	-1.31912	1.48608
H	-2.27405	0.255109	-0.396052
H	-0.227307	1.5039	-1.75495
H	2.08042	0.566993	-0.56634
C	1.99802	0.269855	-0.312913
C	2.87025	-0.55858	-0.986754
N	4.05906	-0.644685	-0.341913
C	3.92485	0.127396	0.727902
N	2.69993	0.701182	0.790479
H	0.96206	0.572873	-0.533146
H	2.66306	-1.0957	-1.92666
H	4.69211	0.307916	1.49794
H	2.35132	1.35085	1.53725
