18
  This energy is -1.6595 and Call times are: 148453
C	-0.837375	0.0045184	0.764972
C	-0.309087	-1.15022	0.267112
C	0.705926	-0.750221	-0.654771
C	0.708295	0.613639	-0.638878
O	-0.227912	1.09146	0.222641
H	-1.6392	0.184436	1.49979
H	-0.604524	-2.18034	0.523344
H	1.35394	-1.40855	-1.25542
H	1.31876	1.35012	-1.18677
C	5.91108	0.8269	-0.830055
C	5.33855	0.976229	0.415362
N	5.38031	-0.18386	1.11462
C	5.97647	-1.04958	0.306079
N	6.31576	-0.488415	-0.878642
H	6.05438	1.53977	-1.65759
H	4.8961	1.90025	0.821896
H	6.18951	-2.10697	0.531434
H	6.79567	-0.964577	-1.68127
