18
  This energy is -0.8385 and Call times are: 9205
C	-0.33091	-1.06074	0.227464
C	-1.2135	-0.0761797	-0.107301
C	-0.428221	1.09857	-0.315692
C	0.864912	0.728182	-0.0898764
O	0.94287	-0.587178	0.242933
H	-0.481408	-2.12451	0.474425
H	-2.30774	-0.167967	-0.198356
H	-0.792562	2.0987	-0.600444
H	1.80705	1.29896	-0.13287
C	6.08653	0.450084	-0.629744
C	5.59834	-0.837955	-0.691114
N	4.57076	-1.01281	0.17492
C	4.42203	0.16229	0.771285
N	5.31239	1.07757	0.320599
H	6.90282	0.947964	-1.17685
H	5.96916	-1.64423	-1.34477
H	3.67685	0.407239	1.54519
H	5.39689	2.07515	0.63518
