18
  This energy is -1.0007 and Call times are: 109735
C	-0.268984	0.747051	0.809916
C	-0.86253	0.755731	-0.418092
C	-0.267815	-0.318755	-1.14741
C	0.636652	-0.889186	-0.300703
O	0.649179	-0.250965	0.899101
H	-0.410201	1.38922	1.69475
H	-1.64105	1.44921	-0.774582
H	-0.493552	-0.624	-2.1818
H	1.32292	-1.74206	-0.430648
C	4.27776	-0.455701	0.57176
C	4.80163	-0.885466	-0.629075
N	5.86526	-0.130286	-0.996381
C	6.00072	0.76457	-0.0270992
N	5.06737	0.610062	0.941704
H	3.42731	-0.820682	1.1693
H	4.4312	-1.72691	-1.23702
H	6.76632	1.55549	0.0231732
H	4.96477	1.19138	1.80935
