18
  This energy is -1.2176 and Call times are: 207180
C	0.742907	-0.595894	0.615955
C	0.464153	-0.897587	-0.68468
C	-0.503211	0.0632514	-1.11026
C	-0.730203	0.867279	-0.0321146
O	0.0224315	0.479176	1.03087
H	1.42532	-1.06319	1.34479
H	0.896382	-1.71477	-1.28425
H	-0.97014	0.139162	-2.1054
H	-1.39378	1.73689	0.104573
C	5.73021	-0.378973	0.841584
C	5.97891	-0.3405	-0.514075
N	4.91551	0.155526	-1.19206
C	4.01055	0.423755	-0.260538
N	4.45407	0.118955	0.982031
H	6.35035	-0.714263	1.68807
H	6.90659	-0.661765	-1.01512
H	3.0068	0.8443	-0.433332
H	3.92636	0.239061	1.88112
