18
  This energy is -0.8731 and Call times are: 171653
C	-1.10548	-0.102915	0.231787
C	-0.410353	-1.05745	-0.450877
C	0.93045	-0.573844	-0.543005
C	0.936307	0.633529	0.0914942
O	-0.298701	0.936886	0.570806
H	-2.16367	-0.0460553	0.535505
H	-0.802446	-2.00688	-0.849572
H	1.78462	-1.07375	-1.02733
H	1.74371	1.36328	0.267027
C	6.53564	0.506891	0.655632
C	6.37546	-0.84164	0.416992
N	5.30683	-1.0726	-0.383766
C	4.80598	0.128088	-0.640917
N	5.51163	1.11343	-0.036969
H	7.28101	1.05942	1.2495
H	7.01181	-1.65208	0.808259
H	3.92382	0.342789	-1.26536
H	5.31595	2.14323	-0.0868199
