18
  This energy is -2.5061 and Call times are: 54716
C	0.0334913	0.73707	-0.861398
C	-0.325509	-0.567914	-1.03025
C	-0.247171	-1.16566	0.26462
C	0.152785	-0.173188	1.11043
O	0.328901	0.995628	0.439714
H	0.117065	1.57089	-1.57764
H	-0.616316	-1.06021	-1.97214
H	-0.465162	-2.21357	0.526292
H	0.345359	-0.171076	2.19586
C	3.91463	-0.306286	1.02747
C	5.25968	-0.267057	0.726714
N	5.4629	0.131119	-0.55261
C	4.24854	0.33812	-1.04364
N	3.28109	0.0881578	-0.129776
H	3.38125	-0.57792	1.95227
H	6.08713	-0.518924	1.4099
H	4.01073	0.67313	-2.06611
H	2.24566	0.177761	-0.275104
