18
  This energy is -1.9114 and Call times are: 166665
C	-0.46942	-0.639637	-0.8105
C	0.652567	0.105361	-1.02613
C	0.930865	0.760492	0.212204
C	-0.0456248	0.358001	1.07525
O	-0.909396	-0.497276	0.467454
H	-1.0448	-1.30417	-1.47577
H	1.22663	0.185527	-1.96321
H	1.76361	1.4496	0.426147
H	-0.23378	0.605017	2.13299
C	4.61773	0.413877	-1.08
C	5.12133	0.897958	0.108785
N	4.66105	0.180824	1.16253
C	3.8749	-0.744627	0.629489
N	3.8159	-0.646056	-0.71973
H	4.76819	0.737838	-2.12208
H	5.80854	1.75182	0.225026
H	3.31829	-1.51914	1.18134
H	3.26441	-1.26007	-1.36788
