18
  This energy is -1.28 and Call times are: 140309
C	-0.643797	-0.930642	-0.0763721
C	0.489198	-0.763445	-0.817144
C	1.01371	0.51244	-0.446852
C	0.154943	1.01229	0.487513
O	-0.863152	0.144158	0.725938
H	-1.37106	-1.75776	-0.029235
H	0.913064	-1.46791	-1.55074
H	1.92512	0.993899	-0.836261
H	0.157496	1.96044	1.04988
C	5.43262	0.69788	0.843148
C	5.9058	0.56554	-0.445155
N	5.16714	-0.32739	-1.14769
C	4.23923	-0.747402	-0.298457
N	4.35688	-0.158728	0.915302
H	5.77388	1.32025	1.6856
H	6.76696	1.09836	-0.880321
H	3.44931	-1.48499	-0.513441
H	3.74518	-0.323466	1.75193
