18
  This energy is -1.1285 and Call times are: 23932
C	0.856405	-0.206102	0.714488
C	-0.110549	-1.13025	0.447432
C	-0.99844	-0.509348	-0.48329
C	-0.495683	0.739416	-0.702824
O	0.636914	0.941655	0.020594
H	1.74149	-0.242757	1.37064
H	-0.190547	-2.14717	0.864053
H	-1.90373	-0.94914	-0.931768
H	-0.846012	1.56669	-1.34168
C	5.69364	0.96512	0.606144
C	6.54628	0.131118	-0.0856622
N	5.8677	-0.886678	-0.668868
C	4.59891	-0.684856	-0.340117
N	4.44208	0.419162	0.428088
H	5.88264	1.87805	1.19299
H	7.63892	0.245553	-0.174429
H	3.7443	-1.31483	-0.635099
H	3.53911	0.788811	0.814445
