18
  This energy is -2.2446 and Call times are: 133762
C	-0.0522588	-0.106047	1.12802
C	0.124974	1.0995	0.51514
C	0.137537	0.82723	-0.88694
C	-0.0331283	-0.520662	-1.00708
O	-0.150766	-1.10656	0.213532
H	-0.12429	-0.381164	2.19309
H	0.235751	2.08194	1.00159
H	0.259991	1.5566	-1.70371
H	-0.08768	-1.17462	-1.89287
C	3.35756	-0.13069	1.16091
C	3.45377	1.05723	0.467561
N	3.61295	0.836608	-0.86003
C	3.61548	-0.483158	-0.989785
N	3.46451	-1.11141	0.200215
H	3.22498	-0.34056	2.23419
H	3.41117	2.06954	0.901457
H	3.72456	-1.04197	-1.93321
H	3.43463	-2.14808	0.360483
