18
  This energy is -2.5739 and Call times are: 36750
C	-0.232178	0.84903	-0.715291
C	0.378201	1.0533	0.487241
C	0.496335	-0.236294	1.08982
C	-0.0522828	-1.11478	0.20232
O	-0.502263	-0.469225	-0.905736
H	-0.525215	1.54922	-1.51474
H	0.711791	2.01558	0.907767
H	0.939729	-0.472692	2.07044
H	-0.180949	-2.20893	0.241303
C	3.83739	-0.819934	-0.362251
C	5.21075	-0.858047	-0.478773
N	5.77679	0.255603	0.0464826
C	4.75846	0.981833	0.487182
N	3.56795	0.376424	0.264103
H	3.05871	-1.53562	-0.670448
H	5.80333	-1.66915	-0.932431
H	4.8282	1.96442	0.981026
H	2.62023	0.747656	0.519604
