18
  This energy is -0.6362 and Call times are: 16338
C	-1.00045	-0.027283	-0.533633
C	0.139905	0.40928	-1.1414
C	1.17334	0.294735	-0.162119
C	0.573284	-0.201712	0.957631
O	-0.754225	-0.40433	0.748639
H	-2.03604	-0.117333	-0.900643
H	0.242998	0.775257	-2.17558
H	2.23701	0.554244	-0.28606
H	0.975623	-0.451139	1.9532
C	6.54226	-1.0378	-0.118414
C	5.35062	-0.65596	-0.697495
N	5.01986	0.610194	-0.345409
C	6.00257	1.01231	0.449076
N	6.94488	0.0544994	0.617089
H	7.1132	-1.97816	-0.175754
H	4.72359	-1.27138	-1.36304
H	6.08186	1.99829	0.934664
H	7.81618	0.129648	1.19713
