18
  This energy is -1.1258 and Call times are: 128937
C	-1.00988	0.248396	0.452588
C	0.0549317	1.09703	0.532349
C	1.1285	0.44205	-0.144835
C	0.624949	-0.749013	-0.578635
O	-0.679666	-0.883924	-0.222558
H	-2.04209	0.332993	0.830275
H	0.0817068	2.08513	1.01921
H	2.15314	0.821351	-0.287408
H	1.0865	-1.57576	-1.14318
C	4.79006	0.645137	0.961674
C	4.97658	1.11077	-0.322669
N	5.19628	0.0892727	-1.18568
C	5.14624	-1.00591	-0.439556
N	4.90382	-0.723583	0.862408
H	4.59107	1.1733	1.90771
H	4.95657	2.16549	-0.642067
H	5.28022	-2.04007	-0.795651
H	4.81872	-1.41551	1.64679
