18
  This energy is -0.8116 and Call times are: 156240
C	-0.29669	0.910544	-0.607688
C	0.922982	0.798709	-0.00746624
C	0.919163	-0.467839	0.652805
C	-0.302506	-1.01817	0.397778
O	-1.05798	-0.190026	-0.370631
H	-0.738176	1.71191	-1.22263
H	1.74309	1.53432	-0.0276477
H	1.73572	-0.90948	1.24634
H	-0.749305	-1.97908	0.701538
C	4.94984	-0.542547	0.43352
C	5.05643	0.0909417	-0.786511
N	6.29668	0.6082	-0.961799
C	6.95701	0.296788	0.145278
N	6.18831	-0.39717	1.0177
H	4.1084	-1.06896	0.911423
H	4.26064	0.184036	-1.54341
H	8.00532	0.552271	0.368866
H	6.48014	-0.756085	1.95965
