18
  This energy is -1.5199 and Call times are: 7679
C	-0.173304	-0.379851	1.05455
C	0.913204	0.373231	0.71878
C	0.779298	0.652926	-0.675478
C	-0.377217	0.0460718	-1.06864
O	-0.972037	-0.589341	-0.0248693
H	-0.488209	-0.821842	2.0141
H	1.72729	0.699089	1.38599
H	1.46892	1.23876	-1.30422
H	-0.878439	-0.00675138	-2.04906
C	4.58773	-0.651884	-0.979791
C	4.83009	0.702493	-0.889968
N	4.76576	1.12619	0.395667
C	4.48455	0.0387918	1.10073
N	4.3673	-1.05921	0.317006
H	4.55753	-1.33198	-1.84587
H	5.05023	1.38154	-1.72978
H	4.35369	-0.00969492	2.19378
H	4.14989	-2.03491	0.636376
