18
  This energy is -1.234 and Call times are: 130176
C	-0.35428	-0.303256	-1.03389
C	-0.503862	-1.11038	0.0554029
C	0.0569064	-0.39133	1.15478
C	0.499662	0.791718	0.64025
O	0.256695	0.862461	-0.69503
H	-0.636646	-0.441437	-2.0905
H	-0.963026	-2.11165	0.0820667
H	0.118973	-0.724254	2.2033
H	0.99755	1.65402	1.11331
C	3.73992	-0.358775	-0.364155
C	4.67073	-1.10081	0.331633
N	5.78375	-0.371653	0.588587
C	5.54434	0.818212	0.0542385
N	4.32513	0.87635	-0.532052
H	2.73599	-0.613738	-0.739193
H	4.55914	-2.14925	0.652835
H	6.22745	1.68279	0.0635802
H	3.90557	1.70452	-1.0213
