18
  This energy is -0.8747 and Call times are: 64481
C	-0.965252	-0.486075	-0.344124
C	-0.865563	0.18102	0.84138
C	0.483723	0.643331	0.91762
C	1.08945	0.217937	-0.228027
O	0.219298	-0.47344	-1.01023
H	-1.81189	-1.00646	-0.82126
H	-1.66226	0.33236	1.58734
H	0.941176	1.22439	1.73445
H	2.12021	0.340816	-0.599083
C	6.11383	-0.449877	-0.82046
C	5.43796	0.750474	-0.879675
N	4.70485	0.954287	0.241719
C	4.92508	-0.115556	0.993755
N	5.76792	-0.991627	0.397344
H	6.79378	-0.94054	-1.53492
H	5.46617	1.47311	-1.71145
H	4.4945	-0.308206	1.98961
H	6.09549	-1.90881	0.788159
