18
  This energy is -1.4569 and Call times are: 47396
C	0.00234591	-0.8466	0.754761
C	0.715968	-0.901206	-0.406331
C	0.461402	0.332221	-1.0801
C	-0.38531	1.03167	-0.271267
O	-0.676187	0.326779	0.853689
H	-0.104416	-1.56751	1.58189
H	1.3573	-1.7272	-0.753513
H	0.866111	0.652693	-2.05355
H	-0.846277	2.02695	-0.38163
C	4.35204	-0.291506	0.999926
C	5.40641	0.585842	0.859547
N	5.7906	0.684709	-0.436266
C	4.97766	-0.128213	-1.09726
N	4.09215	-0.740218	-0.275732
H	3.7871	-0.617427	1.88771
H	5.89679	1.14927	1.67005
H	4.9873	-0.312699	-2.18359
H	3.34917	-1.4259	-0.556961
