18
  This energy is -0.7304 and Call times are: 191979
C	-0.926568	-0.122803	0.642489
C	-0.767831	-0.777955	-0.54324
C	0.505189	-0.371209	-1.04732
C	1.012	0.496592	-0.125127
O	0.150841	0.659987	0.913489
H	-1.74889	-0.128712	1.37666
H	-1.47614	-1.47748	-1.01554
H	0.980146	-0.692665	-1.98816
H	1.96096	1.05663	-0.0923296
C	4.9042	-0.149757	0.402366
C	5.27652	0.161369	-0.888265
N	6.62372	0.258709	-0.998181
C	7.08542	0.00891966	0.21963
N	6.08783	-0.243318	1.09984
H	3.91377	-0.305994	0.858624
H	4.59719	0.317351	-1.7421
H	8.14499	-0.00221057	0.521988
H	6.1955	-0.467453	2.11937
