18
  This energy is -1.9649 and Call times are: 26069
C	0.644203	-0.678713	-0.6409
C	0.133544	-1.07648	0.559675
C	-0.610624	0.0369548	1.05625
C	-0.489023	1.01684	0.115287
O	0.273996	0.597022	-0.928057
H	1.27695	-1.2027	-1.37597
H	0.267462	-2.05574	1.04673
H	-1.1684	0.0926346	2.00487
H	-0.891716	2.04209	0.0711532
C	3.4789	-0.08811	1.09545
C	4.20131	-1.04	0.407558
N	4.52584	-0.604291	-0.833952
C	4.00675	0.613264	-0.915949
N	3.36538	0.970312	0.221925
H	3.05182	-0.0889753	2.1109
H	4.49416	-2.03335	0.784825
H	4.06679	1.28676	-1.78602
H	2.87506	1.88008	0.404026
