18
  This energy is -1.1808 and Call times are: 191082
C	0.464942	-0.18747	-1.01739
C	1.04081	-0.622057	0.14014
C	0.171276	-0.200205	1.19184
C	-0.859199	0.454928	0.584138
O	-0.696127	0.472241	-0.76498
H	0.777645	-0.282705	-2.0702
H	1.98337	-1.18338	0.243068
H	0.305604	-0.369422	2.27231
H	-1.75637	0.946659	0.994662
C	4.62603	-0.804363	-0.773461
C	4.32823	0.541909	-0.770415
N	4.92966	1.17304	0.267111
C	5.59804	0.221923	0.905291
N	5.4468	-0.988212	0.316828
H	4.32211	-1.61747	-1.45171
H	3.69018	1.06914	-1.49826
H	6.21422	0.356774	1.80882
H	5.87348	-1.89395	0.631226
