18
  This energy is -0.3431 and Call times are: 200526
C	-0.896279	0.105783	0.686947
C	0.369433	-0.0782941	1.16072
C	1.20935	-0.165214	0.00872053
C	0.382748	-0.0265777	-1.06733
O	-0.906723	0.139851	-0.671634
H	-1.86125	0.224963	1.20644
H	0.680422	-0.146072	2.21561
H	2.30103	-0.313782	-0.00716985
H	0.586431	-0.0283376	-2.15073
C	5.92483	-0.0187857	-0.0609985
C	6.76016	0.987313	-0.498198
N	8.05955	0.677062	-0.270514
C	8.03044	-0.516966	0.305743
N	6.76639	-0.979298	0.454151
H	4.82767	-0.115973	-0.0793917
H	6.44854	1.93151	-0.973841
H	8.90548	-1.09782	0.639111
H	6.48167	-1.89499	0.880425
