18
  This energy is -1.1002 and Call times are: 116506
C	-0.238354	0.697333	-0.862157
C	0.755879	-0.233986	-0.929401
C	0.74775	-0.906277	0.330788
C	-0.250733	-0.326439	1.05687
O	-0.863564	0.654875	0.343795
H	-0.595224	1.43996	-1.59455
H	1.42761	-0.428075	-1.78099
H	1.41192	-1.72526	0.650536
H	-0.618914	-0.519234	2.07791
C	5.4745	-0.579972	0.907509
C	5.46262	0.784995	0.712912
N	4.82946	1.1086	-0.440733
C	4.44999	-0.0512022	-0.959851
N	4.81545	-1.09934	-0.184326
H	5.8914	-1.19788	1.71863
H	5.89957	1.54211	1.38426
H	3.90169	-0.190209	-1.90551
H	4.63177	-2.11425	-0.377893
