18
  This energy is -1.2225 and Call times are: 206570
C	-0.310786	0.279192	1.05445
C	-1.21376	-0.0833436	0.0986355
C	-0.45017	-0.356148	-1.07722
C	0.852014	-0.136238	-0.736146
O	0.955628	0.252408	0.562018
H	-0.440842	0.574944	2.10843
H	-2.3078	-0.151792	0.210397
H	-0.834457	-0.678166	-2.0584
H	1.78442	-0.220066	-1.31825
C	5.11004	1.13768	0.301124
C	6.06024	0.470012	-0.442164
N	5.72993	-0.834947	-0.598647
C	4.57918	-0.976301	0.0451153
N	4.16362	0.184623	0.604717
H	5.0426	2.18853	0.624722
H	6.97822	0.906513	-0.868333
H	3.99808	-1.90792	0.138014
H	3.28741	0.330846	1.16341
