18
  This energy is -0.9114 and Call times are: 187686
C	0.470842	-0.6422	-0.807644
C	0.477147	0.720662	-0.861896
C	-0.200361	1.16197	0.315535
C	-0.560873	0.0298335	0.985359
O	-0.158963	-1.08123	0.313787
H	0.875452	-1.40312	-1.49506
H	0.914972	1.35188	-1.65181
H	-0.392276	2.20339	0.620032
H	-1.09895	-0.117051	1.93623
C	4.20945	0.442483	0.000477298
C	4.92708	0.00905589	1.09514
N	6.1521	-0.440553	0.729494
C	6.19427	-0.286636	-0.587
N	5.04687	0.242268	-1.07415
H	3.19591	0.865133	-0.0869304
H	4.58288	0.0127039	2.14221
H	7.04079	-0.544867	-1.24347
H	4.83546	0.458604	-2.07902
