18
  This energy is -0.6288 and Call times are: 10573
C	0.375337	0.878993	-0.61065
C	0.76371	0.666979	0.67954
C	0.088685	-0.519054	1.10118
C	-0.652596	-0.927108	0.0314331
O	-0.489547	-0.0849561	-1.0227
H	0.63944	1.66845	-1.33332
H	1.45608	1.2839	1.27463
H	0.153626	-1.00455	2.08819
H	-1.32773	-1.7879	-0.104563
C	5.48133	0.823872	-0.728729
C	4.83041	0.26642	0.351406
N	5.60961	-0.653933	0.969725
C	6.73962	-0.667391	0.275816
N	6.71172	0.206247	-0.758383
H	5.16656	1.59079	-1.45419
H	3.81251	0.511818	0.695643
H	7.61971	-1.29773	0.481603
H	7.48082	0.380006	-1.45087
