18
  This energy is -0.6752 and Call times are: 55123
C	0.413083	-0.0360166	-1.05568
C	1.10907	-0.509448	0.0175534
C	0.271628	-0.29114	1.15384
C	-0.862185	0.296424	0.674663
O	-0.792964	0.459793	-0.672754
H	0.662807	0.00512842	-2.12862
H	2.11162	-0.966548	0.00983235
H	0.495774	-0.545323	2.20229
H	-1.77768	0.641324	1.18275
C	6.70618	-0.391548	-0.640792
C	6.27123	0.91241	-0.532855
N	5.19951	1.00336	0.291559
C	4.97047	-0.239455	0.693537
N	5.85203	-1.11739	0.159064
H	7.53543	-0.839392	-1.21116
H	6.71151	1.78921	-1.03507
H	4.17038	-0.562461	1.37893
H	5.87961	-2.15358	0.322787
