18
  This energy is -0.4123 and Call times are: 190313
C	0.716359	0.267237	-0.837744
C	1.13057	0.094595	0.450277
C	-0.042648	-0.227908	1.19839
C	-1.07023	-0.223874	0.301482
O	-0.624816	0.076564	-0.946859
H	1.27027	0.523745	-1.7557
H	2.15911	0.185257	0.834976
H	-0.104612	-0.43701	2.27845
H	-2.14874	-0.416098	0.424448
C	5.66126	-0.171742	0.242624
C	6.42411	-0.859159	-0.677519
N	7.69875	-0.399345	-0.696482
C	7.72655	0.569644	0.208456
N	6.52244	0.745426	0.802415
H	4.60185	-0.267136	0.52913
H	6.07761	-1.67867	-1.32805
H	8.60239	1.18257	0.475801
H	6.28929	1.44676	1.54742
