18
  This energy is -0.762 and Call times are: 131696
C	0.330648	0.0067998	-1.08491
C	0.902686	0.80926	-0.141932
C	0.227102	0.517034	1.08212
C	-0.698136	-0.438204	0.779092
O	-0.64886	-0.761717	-0.53997
H	0.52826	-0.109669	-2.16316
H	1.71854	1.53425	-0.293149
H	0.415009	0.970399	2.06865
H	-1.44053	-0.961276	1.40399
C	4.67721	0.0851588	-0.575962
C	5.61055	1.08377	-0.394882
N	6.67266	0.636445	0.318094
C	6.39926	-0.634834	0.578336
N	5.20722	-1.01493	0.0604978
H	3.70575	0.0796887	-1.09537
H	5.53661	2.119	-0.765912
H	7.03721	-1.33287	1.14401
H	4.77004	-1.96637	0.130504
