18
  This energy is -1.018 and Call times are: 174950
C	-0.847264	0.749839	0.079285
C	-0.0259411	0.688001	-1.0079
C	0.900103	-0.365661	-0.738914
C	0.562924	-0.854687	0.488904
O	-0.502049	-0.185126	1.00323
H	-1.70228	1.40516	0.313308
H	-0.0679904	1.32088	-1.9089
H	1.71881	-0.712154	-1.38989
H	0.996413	-1.66544	1.0972
C	6.04662	-0.731752	-0.802545
C	6.08404	0.645116	-0.865613
N	6.68033	1.16855	0.233011
C	7.01156	0.120392	0.974813
N	6.65075	-1.04825	0.393716
H	5.64619	-1.48367	-1.50099
H	5.69147	1.27021	-1.68415
H	7.51983	0.151917	1.952
H	6.80234	-2.01184	0.78072
