18
  This energy is -2.4361 and Call times are: 174244
C	0.13713	-0.426707	1.04188
C	0.0428245	-1.21813	-0.064977
C	-0.120654	-0.32755	-1.16963
C	-0.111815	0.92947	-0.640299
O	0.044699	0.887712	0.709061
H	0.269627	-0.673619	2.10806
H	0.0842258	-2.31865	-0.100038
H	-0.231204	-0.600289	-2.23146
H	-0.206782	1.92171	-1.11114
C	4.34456	0.798396	0.863523
C	5.34645	0.492274	-0.0329408
N	4.95255	-0.477675	-0.893493
C	3.71101	-0.772163	-0.532266
N	3.29864	-0.0297943	0.522451
H	4.30324	1.52282	1.6924
H	6.34647	0.953902	-0.0742144
H	3.05852	-1.52328	-1.00589
H	2.36083	-0.0762569	0.991091
