18
  This energy is -1.1511 and Call times are: 161829
C	-0.21621	1.05687	-0.350259
C	-0.0545121	0.742682	0.96713
C	0.19866	-0.662498	1.00574
C	0.169323	-1.08295	-0.291459
O	-0.0827865	-0.0460512	-1.13306
H	-0.427096	2.01512	-0.852783
H	-0.108139	1.43135	1.82559
H	0.380353	-1.27993	1.90009
H	0.3107	-2.07987	-0.740257
C	4.23376	0.878333	-0.16279
C	3.96669	-0.473322	-0.216156
N	5.08459	-1.20198	0.0202197
C	6.04153	-0.305774	0.219469
N	5.57885	0.962907	0.119668
H	3.58351	1.75671	-0.301209
H	2.98741	-0.935817	-0.420983
H	7.09846	-0.523983	0.441996
H	6.13819	1.84325	0.235407
