18
  This energy is -0.8029 and Call times are: 111070
C	-0.584537	-0.885966	-0.399728
C	-1.18936	0.27407	-0.0138799
C	-0.138107	1.13639	0.423594
C	1.01632	0.427184	0.26646
O	0.762391	-0.810055	-0.235307
H	-0.995843	-1.82595	-0.802862
H	-2.26763	0.499873	-0.0351876
H	-0.239237	2.16371	0.808915
H	2.06774	0.687038	0.472029
C	5.02746	1.02676	-0.0552378
C	4.67316	-0.152656	-0.675382
N	5.56005	-1.13805	-0.394432
C	6.46114	-0.572087	0.396997
N	6.18434	0.732557	0.631253
H	4.55401	2.02144	-0.053904
H	3.79347	-0.31024	-1.3205
H	7.34361	-1.06724	0.833241
H	6.74431	1.39395	1.22307
