18
  This energy is -0.7072 and Call times are: 137458
C	-0.840389	0.732586	-0.208486
C	0.410059	1.13932	0.153896
C	1.17519	-0.0545374	0.325348
C	0.324755	-1.08543	0.0526023
O	-0.910437	-0.623014	-0.275239
H	-1.75489	1.30161	-0.443312
H	0.758676	2.17606	0.287108
H	2.23498	-0.127488	0.617924
H	0.47485	-2.17755	0.0563355
C	7.15402	0.0774372	0.217547
C	6.36134	-1.04353	0.344901
N	5.07612	-0.773732	0.0103309
C	5.07151	0.509734	-0.323313
N	6.30052	1.06775	-0.214898
H	8.22922	0.235255	0.39803
H	6.69375	-2.04214	0.672203
H	4.19567	1.09077	-0.654268
H	6.55478	2.06481	-0.420998
