18
  This energy is -0.8781 and Call times are: 34535
C	0.84962	-0.37397	-0.651684
C	0.0636463	-1.21643	0.0783003
C	-0.878221	-0.383524	0.755994
C	-0.584663	0.894389	0.380313
O	0.467826	0.918886	-0.479152
H	1.70127	-0.567675	-1.32431
H	0.139521	-2.31427	0.133961
H	-1.6778	-0.707176	1.44157
H	-1.04353	1.85959	0.650636
C	4.56799	-0.63887	-0.888993
C	4.48869	-0.932307	0.455905
N	5.0952	0.0233603	1.20113
C	5.54903	0.90631	0.321893
N	5.25643	0.552051	-0.95187
H	4.19566	-1.17535	-1.77618
H	4.00472	-1.81646	0.901869
H	6.10222	1.82995	0.556628
H	5.50637	1.08336	-1.82164
