18
  This energy is -1.05 and Call times are: 120381
C	-0.991398	-0.323652	0.445847
C	-0.29194	0.746918	0.920203
C	0.883722	0.834253	0.113785
C	0.798909	-0.190657	-0.782173
O	-0.339872	-0.908097	-0.59384
H	-1.95199	-0.765632	0.757578
H	-0.575438	1.40873	1.75431
H	1.69299	1.57724	0.198331
H	1.47414	-0.511119	-1.59249
C	4.63376	-0.342634	-0.907645
C	4.72773	0.92934	-0.383819
N	5.59097	0.965274	0.66023
C	6.03086	-0.279674	0.783634
N	5.48329	-1.10624	-0.138618
H	4.0422	-0.745036	-1.7453
H	4.18812	1.82177	-0.740516
H	6.7544	-0.64077	1.53218
H	5.67026	-2.13314	-0.24716
