18
  This energy is -2.0478 and Call times are: 85399
C	0.673225	0.0810312	-0.909177
C	0.0828556	-1.0917	-0.539651
C	-0.674877	-0.795101	0.634227
C	-0.480657	0.532689	0.878414
O	0.340009	1.08362	-0.0543169
H	1.34312	0.329598	-1.74865
H	0.172018	-2.0677	-1.04319
H	-1.29002	-1.49543	1.2218
H	-0.865075	1.19394	1.67228
C	3.43368	-0.484259	0.910969
C	4.10126	0.722108	0.898214
N	4.63907	0.97008	-0.32071
C	4.3064	-0.0784644	-1.06133
N	3.57922	-0.983312	-0.364159
H	2.88368	-1.00554	1.71054
H	4.20448	1.41801	1.74669
H	4.56929	-0.234474	-2.12
H	3.19876	-1.89191	-0.726039
