18
  This energy is -1.4489 and Call times are: 28188
C	-0.0426685	-0.223933	-1.11105
C	-0.886243	-0.811421	-0.214606
C	-0.528101	-0.283452	1.06332
C	0.502713	0.580064	0.834989
O	0.812286	0.628808	-0.487434
H	0.0491708	-0.327268	-2.20473
H	-1.68098	-1.54317	-0.431497
H	-0.989945	-0.524453	2.03426
H	1.09287	1.21135	1.51942
C	3.86769	0.471143	-0.98804
C	4.27241	-0.833697	-0.801667
N	4.71794	-1.03122	0.46285
C	4.59009	0.146598	1.05868
N	4.08168	1.08534	0.225693
H	3.45625	0.98883	-1.8691
H	4.25093	-1.63614	-1.55696
H	4.85361	0.376964	2.10354
H	3.88752	2.0897	0.459834
