18
  This energy is -0.6279 and Call times are: 182991
C	1.12088	0.0525341	0.165129
C	0.23326	0.712333	0.963359
C	-1.06187	0.404732	0.445543
C	-0.851357	-0.415883	-0.623404
O	0.475888	-0.641553	-0.80916
H	2.22168	-0.00279303	0.185687
H	0.467077	1.35152	1.82988
H	-2.03187	0.758007	0.830762
H	-1.5526	-0.899205	-1.32334
C	6.919	0.321866	0.493084
C	6.09183	-0.704511	0.897412
N	4.99941	-0.794451	0.100518
C	5.14831	0.172453	-0.794775
N	6.29018	0.873874	-0.600562
H	7.87861	0.686358	0.892876
H	6.2637	-1.38175	1.74986
H	4.45118	0.410698	-1.61421
H	6.63147	1.68388	-1.17386
