18
  This energy is -0.6216 and Call times are: 9045
C	-0.717713	-0.861486	-0.170675
C	0.627139	-0.982032	-0.36359
C	1.18309	0.295957	-0.0508981
C	0.128898	1.08465	0.305495
O	-1.03965	0.394027	0.238049
H	-1.54094	-1.58517	-0.288282
H	1.17291	-1.88075	-0.69304
H	2.24562	0.585125	-0.0897035
H	0.0792268	2.13916	0.622969
C	6.9009	-0.691263	-0.515569
C	5.60014	-1.02373	-0.20149
N	4.95849	0.0153006	0.386049
C	5.85776	0.988654	0.436271
N	7.04499	0.612006	-0.0949573
H	7.70732	-1.27054	-0.99271
H	5.11315	-1.99471	-0.388299
H	5.69969	1.99701	0.851564
H	7.91037	1.20063	-0.171784
