18
  This energy is -0.9719 and Call times are: 80220
C	-0.92011	0.609014	0.262491
C	-0.987592	-0.533374	-0.479649
C	0.355797	-1.0047	-0.594877
C	1.12561	-0.108724	0.0870213
O	0.362852	0.883345	0.617122
H	-1.70238	1.30774	0.601723
H	-1.89259	-0.997579	-0.903432
H	0.699472	-1.907	-1.12576
H	2.21254	-0.0657941	0.265927
C	5.00865	-1.09783	0.414137
C	4.9706	0.0691044	1.14759
N	5.10594	1.15408	0.346956
C	5.2275	0.662107	-0.878527
N	5.1751	-0.690924	-0.890818
H	4.93163	-2.15381	0.71832
H	4.84792	0.147608	2.24013
H	5.35722	1.24793	-1.80277
H	5.24748	-1.31171	-1.73381
