18
  This energy is -0.8148 and Call times are: 137426
C	0.0300541	0.770398	-0.831856
C	-0.964224	0.741538	0.101392
C	-0.657333	-0.353219	0.965939
C	0.497391	-0.896707	0.484684
O	0.931292	-0.223019	-0.612989
H	0.207508	1.4384	-1.69066
H	-1.82719	1.42282	0.173733
H	-1.23505	-0.689502	1.84187
H	1.10185	-1.75195	0.828815
C	6.17503	-0.446558	-0.484759
C	5.33373	-1.07364	0.409739
N	4.30506	-0.264945	0.762372
C	4.50743	0.859559	0.0891983
N	5.62222	0.799868	-0.677136
H	7.09723	-0.787694	-0.981459
H	5.45056	-2.09511	0.806986
H	3.87023	1.75801	0.120643
H	5.9945	1.55854	-1.2993
