18
  This energy is -1.0576 and Call times are: 19958
C	-0.814119	-0.5255	-0.589457
C	-0.886006	0.797054	-0.263794
C	0.30692	1.08518	0.466978
C	1.00248	-0.086736	0.523368
O	0.33258	-1.081	-0.116693
H	-1.50442	-1.17976	-1.14684
H	-1.69766	1.49929	-0.513157
H	0.604082	2.05523	0.896862
H	1.97202	-0.340094	0.982778
C	5.42216	-0.396926	-1.10119
C	6.2452	-0.666538	-0.0283168
N	5.80674	-0.0436776	1.09253
C	4.71584	0.609855	0.716436
N	4.44202	0.428635	-0.597251
H	5.46321	-0.723236	-2.15256
H	7.14754	-1.29933	-0.0429212
H	4.07968	1.23602	1.36255
H	3.63654	0.838862	-1.13033
