18
  This energy is -0.8838 and Call times are: 86890
C	0.53034	-0.91005	0.420654
C	1.14795	0.298785	0.287794
C	0.169924	1.17847	-0.268746
C	-0.959006	0.429542	-0.42685
O	-0.756881	-0.848416	-0.0109399
H	0.893014	-1.87821	0.803247
H	2.18792	0.54619	0.554906
H	0.300826	2.24353	-0.518934
H	-1.95716	0.685372	-0.818628
C	5.67521	-1.02152	0.579598
C	4.7047	-0.654922	-0.328619
N	4.92732	0.594455	-0.80402
C	6.03174	1.00139	-0.193052
N	6.52105	0.0627208	0.651381
H	5.819	-1.94639	1.16053
H	3.84783	-1.26953	-0.64938
H	6.52523	1.97744	-0.327289
H	7.38094	0.145181	1.24724
