18
  This energy is -1.3001 and Call times are: 142427
C	-0.242071	1.08051	0.245576
C	-1.21056	0.155713	-0.0135759
C	-0.522461	-1.06843	-0.274561
C	0.805773	-0.783627	-0.151854
O	0.995308	0.52419	0.165483
H	-0.302951	2.1522	0.496613
H	-2.30021	0.319177	-0.0202829
H	-0.972524	-2.0428	-0.523851
H	1.70232	-1.41521	-0.263951
C	4.33238	0.305266	0.734261
C	4.31146	0.368209	-0.642963
N	5.48341	-0.0626665	-1.16965
C	6.22854	-0.391661	-0.123143
N	5.57927	-0.187975	1.04756
H	3.57351	0.56781	1.4884
H	3.47174	0.716801	-1.26602
H	7.25664	-0.786698	-0.157391
H	5.95428	-0.370932	2.01045
