18
  This energy is -0.8226 and Call times are: 209209
C	-0.160585	-0.459358	-1.0245
C	-1.17729	0.0988203	-0.30678
C	-0.589086	0.561153	0.90993
C	0.735135	0.244687	0.828315
O	1.01446	-0.379035	-0.346401
H	-0.143924	-0.940123	-2.01639
H	-2.23533	0.17713	-0.604306
H	-1.10039	1.0692	1.74333
H	1.57022	0.407212	1.52936
C	6.13959	0.2861	0.471689
C	5.08616	1.13715	0.212567
N	4.04154	0.469221	-0.334378
C	4.44538	-0.791396	-0.414261
N	5.70365	-0.953247	0.0591838
H	7.1354	0.468612	0.905956
H	5.06115	2.22115	0.410464
H	3.85972	-1.63623	-0.811121
H	6.24415	-1.85166	0.103567
