18
  This energy is -0.8527 and Call times are: 170562
C	-0.860811	-0.737802	-0.0324504
C	-0.633846	0.164127	-1.03014
C	0.520848	0.904805	-0.632403
C	0.897566	0.39011	0.573227
O	0.0648975	-0.613909	0.954831
H	-1.63689	-1.51081	0.0916835
H	-1.22068	0.294747	-1.95353
H	1.00729	1.72388	-1.1861
H	1.72813	0.64768	1.25077
C	4.56411	-0.293457	-0.0934664
C	5.0838	0.807466	0.553869
N	6.43569	0.834404	0.46352
C	6.75348	-0.245701	-0.2372
N	5.65982	-0.958757	-0.596442
H	3.52671	-0.639026	-0.227334
H	4.5075	1.58282	1.08449
H	7.77167	-0.561868	-0.515675
H	5.64868	-1.84883	-1.15223
