18
  This energy is -0.8928 and Call times are: 203090
C	0.969182	0.00831063	0.589083
C	0.925501	0.268799	-0.749055
C	-0.449137	0.165185	-1.12289
C	-1.12413	-0.149473	0.0198056
O	-0.273585	-0.249245	1.07509
H	1.81067	-0.0242389	1.30049
H	1.77597	0.50974	-1.40688
H	-0.876381	0.309817	-2.12819
H	-2.19532	-0.326191	0.211056
C	4.98764	0.5857	0.457864
C	5.00448	-0.129264	-0.720986
N	6.22392	-0.677297	-0.942692
C	6.96077	-0.303739	0.0946718
N	6.26072	0.459261	0.967229
H	4.18652	1.15648	0.953803
H	4.1586	-0.259488	-1.41551
H	8.01862	-0.560914	0.265089
H	6.61942	0.875256	1.8614
