18
  This energy is -1.9627 and Call times are: 129562
C	0.265438	-0.730013	0.826453
C	-0.539519	-1.07257	-0.220005
C	-0.636861	0.0950086	-1.03695
C	0.117204	1.04798	-0.417602
O	0.675618	0.561433	0.721895
H	0.616785	-1.30661	1.69786
H	-1.01686	-2.04946	-0.398705
H	-1.20468	0.203377	-1.975
H	0.333109	2.09596	-0.682899
C	5.96326	-0.999397	-0.618301
C	6.97014	-0.421359	0.125483
N	6.54946	0.727811	0.70768
C	5.28641	0.862175	0.326525
N	4.88601	-0.153867	-0.474055
H	5.93793	-1.92183	-1.21997
H	7.99259	-0.812908	0.252461
H	4.60905	1.68564	0.604592
H	3.93597	-0.274538	-0.903132
