18
  This energy is -0.874 and Call times are: 126214
C	-0.24955	0.677409	0.874782
C	-0.738934	0.894232	-0.379756
C	-0.208758	-0.153641	-1.19277
C	0.557806	-0.918301	-0.363285
O	0.544278	-0.425336	0.903133
H	-0.389905	1.22786	1.81953
H	-1.40632	1.71022	-0.700469
H	-0.38335	-0.311645	-2.26918
H	1.15514	-1.82586	-0.549762
C	6.31698	0.339969	-0.147914
C	5.87139	-0.745803	0.575756
N	4.52018	-0.840245	0.533062
C	4.129	0.183046	-0.214253
N	5.1753	0.92466	-0.64882
H	7.33185	0.725094	-0.335634
H	6.50067	-1.46272	1.12792
H	3.08854	0.43569	-0.474734
H	5.12619	1.78175	-1.25234
