18
  This energy is -1.4147 and Call times are: 13423
C	0.178977	-1.08606	-0.273566
C	0.221822	-0.640764	1.01494
C	-0.0499515	0.760132	0.953726
C	-0.234882	1.04723	-0.366784
O	-0.0987086	-0.0685553	-1.13064
H	0.326612	-2.08945	-0.705625
H	0.424477	-1.2388	1.91792
H	-0.0999067	1.46422	1.79981
H	-0.465392	1.99306	-0.884019
C	6.89196	0.587478	-0.236593
C	5.92521	0.932822	0.683878
N	4.91564	0.0288516	0.694634
C	5.25479	-0.873858	-0.215703
N	6.4383	-0.581725	-0.805231
H	7.83907	1.07475	-0.517839
H	5.93807	1.81805	1.34042
H	4.67295	-1.76844	-0.490305
H	6.91879	-1.1396	-1.55301
