18
  This energy is -0.6778 and Call times are: 122471
C	-0.467016	-0.503459	-0.902677
C	0.839687	-0.68809	-0.557984
C	1.04952	0.0989703	0.615312
C	-0.147486	0.695083	0.88403
O	-1.08501	0.338343	-0.0329244
H	-1.06848	-0.908981	-1.73276
H	1.5814	-1.31558	-1.0778
H	1.98627	0.203051	1.18606
H	-0.456996	1.38468	1.68647
C	5.20992	-0.394645	0.202673
C	6.3394	-0.665089	0.945825
N	7.42646	-0.0450137	0.425894
C	6.97308	0.607626	-0.635771
N	5.64262	0.428508	-0.812896
H	4.16375	-0.718889	0.32071
H	6.38942	-1.29652	1.84785
H	7.57227	1.23162	-1.3183
H	5.05302	0.838563	-1.57807
