18
  This energy is -0.9959 and Call times are: 89167
C	-0.400602	0.729431	-0.770617
C	0.284435	-0.397561	-1.11845
C	0.617844	-1.04701	0.10922
C	0.107117	-0.259554	1.09889
O	-0.518197	0.829645	0.579621
H	-0.850095	1.52954	-1.38138
H	0.530302	-0.737449	-2.13733
H	1.17361	-1.99055	0.231448
H	0.121529	-0.363088	2.19631
C	4.36705	-0.593801	0.402603
C	5.695	-0.919089	0.581149
N	6.5049	-0.0133164	-0.0189696
C	5.68252	0.870528	-0.567725
N	4.38293	0.564664	-0.341639
H	3.44269	-1.08822	0.741196
H	6.08322	-1.79112	1.13223
H	5.97887	1.7605	-1.14597
H	3.54675	1.10673	-0.670613
