18
  This energy is -0.981 and Call times are: 30295
C	-1.11208	0.222192	0.017737
C	-0.285908	0.706234	-0.953613
C	1.01823	0.217176	-0.637127
C	0.873875	-0.52255	0.499684
O	-0.420587	-0.530333	0.913593
H	-2.19593	0.339795	0.181086
H	-0.566685	1.34373	-1.80735
H	1.94964	0.400093	-1.19669
H	1.6046	-1.08542	1.10339
C	4.68316	0.846684	0.0314163
C	5.07919	0.119439	-1.07104
N	6.04393	-0.774927	-0.745621
C	6.24563	-0.603177	0.55378
N	5.44921	0.363395	1.06861
H	3.93535	1.64722	0.147407
H	4.6861	0.224049	-2.09544
H	6.96446	-1.15848	1.17759
H	5.42072	0.683633	2.06756
