18
  This energy is -1.0456 and Call times are: 211478
C	-0.0152667	0.782624	-0.820773
C	1.10701	0.504971	-0.0970489
C	0.733854	-0.519742	0.825358
C	-0.583513	-0.777819	0.583875
O	-1.05724	0.00848269	-0.418282
H	-0.199495	1.49908	-1.63809
H	2.0982	0.974643	-0.202199
H	1.37819	-1.00253	1.57758
H	-1.28695	-1.48715	1.05
C	5.69459	0.906694	-0.744346
C	6.46312	-0.238024	-0.732705
N	6.07985	-1.07376	0.262862
C	5.07737	-0.44989	0.866548
N	4.8069	0.748158	0.296356
H	5.71585	1.79333	-1.39777
H	7.28728	-0.475869	-1.42483
H	4.50615	-0.825291	1.73085
H	4.06276	1.42694	0.590926
