18
  This energy is -1.2987 and Call times are: 25941
C	-0.397495	-1.03859	0.223016
C	-1.21296	-0.00598299	-0.13632
C	-0.355815	1.12009	-0.329683
C	0.907771	0.676201	-0.0714387
O	0.900977	-0.639851	0.267635
H	-0.615579	-2.09061	0.469892
H	-2.30821	-0.0344052	-0.253466
H	-0.654352	2.13834	-0.626558
H	1.88232	1.191	-0.0936073
C	5.01692	1.02243	-0.407325
C	4.84511	0.666197	0.913556
N	4.34259	-0.587855	1.02004
C	4.20318	-1.00801	-0.230022
N	4.59617	-0.0732677	-1.12747
H	5.39617	1.94726	-0.870357
H	5.07474	1.29158	1.79163
H	3.81811	-1.99133	-0.5447
H	4.58288	-0.165616	-2.17272
