18
  This energy is -0.9337 and Call times are: 202320
C	-1.1203	-0.0996381	0.146253
C	-0.558205	0.0925689	-1.08154
C	0.850688	0.167813	-0.859103
C	1.02517	0.0149436	0.484981
O	-0.167979	-0.149543	1.11455
H	-2.17099	-0.214763	0.459394
H	-1.08305	0.173269	-2.047
H	1.63539	0.318452	-1.61781
H	1.93482	0.00451259	1.10762
C	6.46331	-0.650502	-0.1843
C	5.76546	-0.521753	0.99789
N	4.70469	0.308759	0.851162
C	4.74432	0.693773	-0.417229
N	5.78633	0.14266	-1.08362
H	7.36373	-1.23105	-0.440703
H	6.00837	-1.01324	1.95407
H	4.03488	1.37806	-0.909862
H	6.03176	0.291263	-2.09305
