18
  This energy is -1.0181 and Call times are: 178472
C	-0.957155	-0.460884	0.397293
C	-0.340534	-0.91642	-0.73082
C	0.815175	-0.0950609	-0.903517
C	0.802768	0.789889	0.134309
O	-0.272595	0.580914	0.938632
H	-1.87562	-0.788436	0.911477
H	-0.666798	-1.74747	-1.37658
H	1.56313	-0.162664	-1.70979
H	1.49236	1.60518	0.408204
C	5.85395	0.405862	-1.00712
C	4.58063	0.625095	-0.525717
N	4.39568	0.00703402	0.666049
C	5.54987	-0.593343	0.923003
N	6.46153	-0.382904	-0.055869
H	6.35403	0.744047	-1.92858
H	3.79209	1.21816	-1.01696
H	5.78147	-1.19978	1.81341
H	7.444	-0.750556	-0.0846827
