18
  This energy is -0.8603 and Call times are: 78969
C	-0.831956	0.731295	0.243839
C	-0.790733	-0.528455	0.765092
C	0.387959	-1.13384	0.231888
C	0.962966	-0.190598	-0.568127
O	0.231321	0.954691	-0.572585
H	-1.55486	1.55325	0.374417
H	-1.51745	-0.985541	1.45578
H	0.756828	-2.15364	0.426968
H	1.88009	-0.210986	-1.17945
C	4.84029	-0.578154	-0.78461
C	5.85374	0.316815	-1.05498
N	6.40162	0.794695	0.0886853
C	5.73061	0.198457	1.06484
N	4.77851	-0.638981	0.589679
H	4.18068	-1.15676	-1.4507
H	6.19942	0.626273	-2.05477
H	5.89557	0.338941	2.14525
H	4.11892	-1.22328	1.15959
