18
  This energy is -0.7778 and Call times are: 55972
C	0.0750852	-0.744093	0.852695
C	-1.11237	-0.198854	0.461495
C	-0.802063	0.676406	-0.623746
C	0.547624	0.588759	-0.799919
O	1.0995	-0.274268	0.0931836
H	0.320775	-1.46815	1.64682
H	-2.10703	-0.393485	0.893781
H	-1.50829	1.29532	-1.20018
H	1.22508	1.08254	-1.5158
C	5.73416	0.550313	-0.621625
C	4.97551	-0.527304	-1.027
N	4.10843	-0.906899	-0.0571627
C	4.32833	-0.0679627	0.946058
N	5.29939	0.829685	0.65474
H	6.52625	1.11917	-1.13401
H	5.03826	-1.0377	-2.00189
H	3.8065	-0.0664176	1.91659
H	5.65359	1.59303	1.28172
