18
  This energy is -1.0144 and Call times are: 34811
C	-0.621347	0.572459	-0.756716
C	0.499297	1.09849	-0.184156
C	0.995963	0.0922923	0.699591
C	0.134982	-0.959785	0.589061
O	-0.858757	-0.683889	-0.296024
H	-1.32739	0.985373	-1.49581
H	0.932707	2.09509	-0.365904
H	1.89102	0.153644	1.33928
H	0.120005	-1.94689	1.07961
C	4.44567	-0.43754	-0.286419
C	4.82443	0.888097	-0.305574
N	6.11381	1.03357	0.0853933
C	6.53334	-0.197141	0.346103
N	5.56435	-1.11964	0.137223
H	3.49106	-0.92744	-0.535953
H	4.19046	1.74217	-0.594495
H	7.54051	-0.479302	0.692841
H	5.6491	-2.15687	0.272263
