18
  This energy is -0.8531 and Call times are: 111533
C	-0.151507	0.926229	0.636825
C	-1.15946	0.369639	-0.0943421
C	-0.587359	-0.762847	-0.750308
C	0.719697	-0.79833	-0.362085
O	1.00323	0.225827	0.485099
H	-0.12836	1.8089	1.29683
H	-2.20133	0.721285	-0.164701
H	-1.09746	-1.46384	-1.43038
H	1.53887	-1.4914	-0.614795
C	6.55864	0.484935	0.170892
C	6.01095	0.0967368	-1.03347
N	4.77211	-0.424954	-0.861344
C	4.5521	-0.360643	0.444827
N	5.5996	0.180341	1.11091
H	7.53058	0.941168	0.41732
H	6.48749	0.183737	-2.02351
H	3.6411	-0.695666	0.966438
H	5.66812	0.337756	2.14618
