18
  This energy is -0.7452 and Call times are: 28703
C	-0.880677	0.693824	-0.171517
C	-1.03936	-0.623431	0.144763
C	0.279578	-1.15484	0.279421
C	1.12781	-0.115405	0.0335421
O	0.436357	1.02129	-0.243617
H	-1.61508	1.49226	-0.367469
H	-1.98984	-1.16642	0.270614
H	0.555034	-2.19176	0.530435
H	2.22858	-0.0563624	0.0249528
C	5.91921	-1.1553	0.209423
C	6.95744	-0.320495	0.564868
N	6.71973	0.952388	0.165151
C	5.53852	0.907419	-0.435981
N	5.01482	-0.34131	-0.435314
H	5.7651	-2.23499	0.364483
H	7.87377	-0.613842	1.10257
H	5.01099	1.75952	-0.894096
H	4.09507	-0.633702	-0.847423
