18
  This energy is -1.3302 and Call times are: 52483
C	0.00885294	-0.166088	1.12193
C	1.0022	0.509151	0.47565
C	0.639837	0.509666	-0.905946
C	-0.54296	-0.165304	-0.981972
O	-0.943056	-0.585126	0.247127
H	-0.134946	-0.412083	2.18686
H	1.90005	0.961497	0.926594
H	1.20087	0.962489	-1.73919
H	-1.19096	-0.410584	-1.8394
C	5.03279	-0.799784	0.831412
C	4.96167	-1.01642	-0.528423
N	4.67281	0.1297	-1.19135
C	4.56514	1.05385	-0.246374
N	4.77353	0.54324	0.990334
H	5.24256	-1.48348	1.66932
H	5.1136	-1.97918	-1.04307
H	4.33527	2.11982	-0.404759
H	4.74334	1.07006	1.89742
