18
  This energy is -1.0712 and Call times are: 119154
C	0.498904	-0.216733	-0.99525
C	1.0017	-0.671595	0.188247
C	0.109179	-0.200637	1.19905
C	-0.860241	0.500445	0.544004
O	-0.638002	0.50094	-0.79675
H	0.852	-0.334083	-2.03294
H	1.90999	-1.27794	0.334755
H	0.187866	-0.36923	2.28508
H	-1.74901	1.03839	0.91274
C	5.12094	-0.391486	1.00117
C	6.30059	0.309647	0.867048
N	6.55049	0.601517	-0.432519
C	5.52975	0.0834221	-1.10207
N	4.64075	-0.525996	-0.282387
H	4.60636	-0.790912	1.88954
H	6.97586	0.610138	1.68471
H	5.38366	0.121553	-2.1936
H	3.75454	-1.00894	-0.569869
