18
  This energy is -0.8391 and Call times are: 69242
C	0.234535	-0.907021	0.639303
C	0.830042	0.303209	0.842011
C	0.284045	1.17806	-0.146241
C	-0.596914	0.425208	-0.865616
O	-0.639842	-0.85072	-0.399594
H	0.345778	-1.87279	1.15908
H	1.5787	0.554643	1.61038
H	0.525203	2.24266	-0.296449
H	-1.24537	0.676706	-1.7209
C	6.06745	-0.828001	0.332467
C	5.87982	-0.337658	-0.942485
N	4.91192	0.610615	-0.963774
C	4.50065	0.708185	0.293191
N	5.16675	-0.1387	1.11336
H	6.75523	-1.59316	0.726195
H	6.4255	-0.651121	-1.84737
H	3.71476	1.38357	0.667973
H	5.02423	-0.249173	2.14716
