18
  This energy is -0.4547 and Call times are: 130515
C	-0.912774	0.231187	-0.632295
C	0.341938	0.154069	-1.16156
C	1.20938	-0.150355	-0.068409
C	0.408175	-0.232394	1.03237
O	-0.890953	-0.0021333	0.706397
H	-1.89028	0.44208	-1.09626
H	0.627934	0.2972	-2.21599
H	2.30166	-0.290185	-0.106756
H	0.637631	-0.445078	2.08942
C	7.31578	0.962567	-0.281733
C	7.82266	-0.271121	0.0678838
N	6.82683	-1.15222	0.329596
C	5.70642	-0.46774	0.143048
N	5.94809	0.812342	-0.22651
H	7.8149	1.90532	-0.556747
H	8.88908	-0.541243	0.135978
H	4.68191	-0.855232	0.263335
H	5.23035	1.54987	-0.431849
