18
  This energy is -2.1094 and Call times are: 166729
C	-0.504277	-0.986664	-0.242075
C	-0.274552	-0.578747	1.03902
C	0.367824	0.69275	0.93525
C	0.473938	0.949582	-0.400097
O	-0.0535684	-0.0654738	-1.13386
H	-0.973667	-1.89873	-0.64588
H	-0.531659	-1.11903	1.96427
H	0.707801	1.33431	1.76405
H	0.898351	1.80668	-0.948288
C	3.76674	1.14488	0.264383
C	3.7957	0.088128	1.14959
N	3.69643	-1.09676	0.499432
C	3.60623	-0.776298	-0.784231
N	3.64399	0.563367	-0.977779
H	3.82292	2.23324	0.425117
H	3.88645	0.159424	2.24573
H	3.51075	-1.48321	-1.62411
H	3.59003	1.06373	-1.89864
