18
  This energy is -1.4247 and Call times are: 67982
C	0.721473	-0.651347	-0.584487
C	0.879978	-0.39811	0.746348
C	-0.210564	0.44692	1.11616
C	-0.939213	0.635471	-0.0213331
O	-0.384458	-0.0280327	-1.06968
H	1.31877	-1.251	-1.29082
H	1.68418	-0.769151	1.40186
H	-0.420017	0.861328	2.11541
H	-1.8593	1.21159	-0.213107
C	4.53879	1.12871	0.291756
C	3.9519	0.453214	-0.757252
N	4.36406	-0.837088	-0.799216
C	5.20344	-0.961589	0.219882
N	5.34244	0.196011	0.908527
H	4.44456	2.17232	0.631669
H	3.23846	0.873757	-1.48457
H	5.7438	-1.87802	0.506933
H	5.94719	0.353095	1.75165
