18
  This energy is -1.2641 and Call times are: 210552
C	0.981438	0.389678	0.413922
C	-0.226074	0.8876	0.806812
C	-1.20861	0.153445	0.0748573
C	-0.514777	-0.728299	-0.700704
O	0.823967	-0.597893	-0.50636
H	2.01089	0.649433	0.710573
H	-0.406769	1.69126	1.53865
H	-2.30257	0.274711	0.126345
H	-0.852424	-1.49005	-1.4225
C	4.32345	-0.90541	-0.482616
C	5.12424	-0.937771	0.63936
N	5.63137	0.288733	0.913266
C	5.14703	1.07898	-0.0351803
N	4.35275	0.406123	-0.901197
H	3.75381	-1.69649	-0.995689
H	5.34518	-1.82413	1.25613
H	5.34206	2.15817	-0.142546
H	3.85423	0.807129	-1.73302
