18
  This energy is -0.8457 and Call times are: 104385
C	-0.381058	-0.484559	-0.95205
C	0.895452	-0.658673	-0.504186
C	0.992627	0.0975784	0.703604
C	-0.233079	0.667067	0.887184
O	-1.08436	0.322248	-0.11453
H	-0.903879	-0.875404	-1.84039
H	1.68903	-1.25939	-0.976916
H	1.87652	0.199791	1.35351
H	-0.620691	1.32847	1.67936
C	5.73168	0.316228	1.13318
C	4.78529	0.679927	0.198715
N	5.05832	0.134049	-1.01124
C	6.16986	-0.565637	-0.828092
N	6.61539	-0.487574	0.448232
H	5.83538	0.56425	2.20148
H	3.91037	1.32643	0.375877
H	6.69985	-1.15372	-1.59458
H	7.47098	-0.951059	0.841162
