18
  This energy is -1.8983 and Call times are: 13390
C	-0.674359	-0.655982	0.633505
C	-0.236814	0.564925	1.05578
C	0.576341	1.07597	-0.0014482
C	0.563921	0.122246	-0.976447
O	-0.194997	-0.9424	-0.605522
H	-1.32193	-1.40714	1.11482
H	-0.463898	1.05635	2.01548
H	1.10508	2.04241	-0.0244279
H	1.04777	0.0821596	-1.96616
C	4.14074	-0.492385	-1.06817
C	3.46705	-0.967722	0.0369713
N	3.63698	-0.14809	1.10273
C	4.41315	0.831998	0.660432
N	4.7441	0.66994	-0.642563
H	4.2305	-0.885867	-2.09319
H	2.86141	-1.8874	0.0844158
H	4.76913	1.69317	1.24856
H	5.3457	1.30813	-1.2188
