18
  This energy is -1.3387 and Call times are: 103616
C	0.0413279	1.12429	0.143742
C	0.0664746	0.25244	1.19237
C	-0.00165064	-1.05313	0.617085
C	-0.0624134	-0.863849	-0.732305
O	-0.0372295	0.459854	-1.0392
H	0.0730935	2.22563	0.107708
H	0.126931	0.503512	2.26354
H	-0.00451599	-2.01558	1.15353
H	-0.125437	-1.57909	-1.56879
C	3.95701	0.224083	-0.790088
C	3.7804	-0.178008	0.516923
N	4.97119	-0.344815	1.14198
C	5.88307	-0.0473383	0.226219
N	5.32183	0.301829	-0.955596
H	3.23221	0.452772	-1.58753
H	2.81509	-0.350741	1.02011
H	6.97564	-0.0687029	0.367885
H	5.82963	0.57897	-1.83115
