18
  This energy is -0.9332 and Call times are: 106037
C	0.471741	-0.674302	0.780498
C	0.366786	0.675204	0.948396
C	-0.272846	1.16726	-0.230107
C	-0.502297	0.0750028	-1.01414
O	-0.0539515	-1.05816	-0.412527
H	0.894085	-1.46084	1.4272
H	0.705784	1.265	1.81518
H	-0.528382	2.21441	-0.458729
H	-0.969938	-0.0268941	-2.0072
C	6.27255	0.0700986	0.0728234
C	5.42991	0.947068	-0.576807
N	4.13647	0.560527	-0.457975
C	4.17655	-0.55201	0.262635
N	5.44187	-0.889364	0.60723
H	7.368	0.0611859	0.18878
H	5.73206	1.85178	-1.12912
H	3.30896	-1.15954	0.566648
H	5.73439	-1.72299	1.17359
