18
  This energy is -1.367 and Call times are: 100152
C	-0.675604	-0.904717	0.106989
C	-0.372304	-0.358918	-1.10565
C	0.489892	0.746514	-0.832232
C	0.637356	0.778644	0.523347
O	-0.0675329	-0.222604	1.11296
H	-1.30379	-1.76722	0.383997
H	-0.720772	-0.700482	-2.09357
H	0.942829	1.43244	-1.56602
H	1.20884	1.45424	1.18079
C	5.55439	0.38491	-0.571032
C	5.1169	0.785901	0.673538
N	3.9813	0.135368	1.02528
C	3.7153	-0.666148	0.00281549
N	4.63459	-0.552561	-0.984913
H	6.4261	0.690145	-1.17145
H	5.60031	1.53295	1.32398
H	2.8603	-1.35697	-0.0745145
H	4.64472	-1.07844	-1.89299
