18
  This energy is -1.7581 and Call times are: 128969
C	-0.0126676	0.132661	-1.12634
C	-0.294552	-1.06027	-0.528156
C	-0.177158	-0.830613	0.87669
C	0.166101	0.482388	1.01297
O	0.270912	1.08597	-0.20017
H	0.0193906	0.428781	-2.18772
H	-0.558657	-2.00699	-1.02623
H	-0.332145	-1.56386	1.68441
H	0.361502	1.09806	1.90629
C	3.54062	-0.599771	-0.323963
C	4.81878	-0.7539	-0.817616
N	5.68077	0.102818	-0.21802
C	4.94018	0.785834	0.644327
N	3.64271	0.39921	0.618269
H	2.59709	-1.11316	-0.56834
H	5.13443	-1.46792	-1.59568
H	5.2973	1.58023	1.31933
H	2.86306	0.786633	1.2042
