18
  This energy is -1.0933 and Call times are: 54099
C	0.707793	-0.810031	-0.359553
C	1.1314	0.254048	0.381168
C	-0.0328431	1.04124	0.636103
C	-1.06512	0.388712	0.0286644
O	-0.630921	-0.74391	-0.584239
H	1.25289	-1.66998	-0.782177
H	2.16048	0.463606	0.714587
H	-0.0859117	1.98249	1.20648
H	-2.13994	0.624066	-0.0392422
C	4.59853	-0.0428856	-0.944027
C	4.85807	1.05786	-0.155273
N	5.71341	0.748411	0.849289
C	5.98347	-0.539414	0.684364
N	5.33541	-1.06219	-0.383492
H	3.9628	-0.168793	-1.83483
H	4.44348	2.06978	-0.293041
H	6.64904	-1.14878	1.31676
H	5.38487	-2.05486	-0.720263
