18
  This energy is -1.1046 and Call times are: 155856
C	0.0383973	-0.79356	-0.809437
C	-0.524589	0.431825	-1.01401
C	-0.381483	1.13861	0.218906
C	0.256321	0.282743	1.06806
O	0.520375	-0.901933	0.456645
H	0.157292	-1.66391	-1.47548
H	-0.9936	0.800978	-1.94021
H	-0.717477	2.16472	0.438694
H	0.574335	0.395821	2.11751
C	3.91783	-0.29234	-0.358528
C	4.73689	-1.01983	0.478754
N	5.91683	-0.384723	0.680973
C	5.83011	0.732519	-0.0281614
N	4.64389	0.834606	-0.673197
H	2.9035	-0.490234	-0.739987
H	4.49759	-1.99159	0.940557
H	6.60603	1.51062	-0.110188
H	4.33596	1.62218	-1.29462
