18
  This energy is -0.5974 and Call times are: 67406
C	-0.204871	-0.290874	1.07695
C	-1.20167	0.0462394	0.209127
C	-0.556959	0.344748	-1.02997
C	0.776903	0.163697	-0.809954
O	1.01002	-0.224552	0.471425
H	-0.229392	-0.592814	2.13689
H	-2.28253	0.0811963	0.420352
H	-1.03856	0.657167	-1.97047
H	1.64944	0.277103	-1.47409
C	6.07947	-0.790455	-0.390768
C	4.77472	-1.0307	-0.0151823
N	4.16317	0.110771	0.384274
C	5.08502	1.05555	0.256985
N	6.25777	0.562538	-0.206904
H	6.86743	-1.46408	-0.763444
H	4.26367	-2.00721	-0.0252736
H	4.95442	2.12475	0.48934
H	7.13559	1.10719	-0.391361
