18
  This energy is -0.8117 and Call times are: 209680
C	0.982683	0.537107	0.179586
C	-0.0900513	1.15043	-0.39787
C	-1.12182	0.164205	-0.452166
C	-0.588498	-0.964718	0.0969055
O	0.695999	-0.755018	0.488193
H	1.99266	0.906264	0.422304
H	-0.148886	2.19276	-0.750247
H	-2.13967	0.289856	-0.855009
H	-1.01411	-1.96779	0.264077
C	4.80022	0.660589	0.926739
C	4.92583	1.07833	-0.38126
N	5.28647	0.0520488	-1.18947
C	5.38422	-0.998367	-0.38592
N	5.10072	-0.682979	0.900062
H	4.52735	1.20614	1.84405
H	4.76269	2.10185	-0.756282
H	5.65986	-2.02191	-0.686948
H	5.10838	-1.33728	1.72048
