18
  This energy is -1.1001 and Call times are: 93392
C	-0.0367729	-0.984384	-0.562172
C	0.735059	0.0626718	-0.972444
C	0.516107	1.10592	-0.0217499
C	-0.370195	0.604277	0.885554
O	-0.718569	-0.671143	0.570985
H	-0.186104	-1.99192	-0.98387
H	1.39262	0.0969458	-1.85592
H	0.970151	2.10988	-0.0215667
H	-0.824178	1.04831	1.78665
C	5.48333	-0.454146	0.915732
C	4.49197	-1.0676	0.179511
N	4.03928	-0.253259	-0.804575
C	4.74711	0.861154	-0.67933
N	5.63141	0.789634	0.343652
H	6.07422	-0.803027	1.77752
H	4.09525	-2.08321	0.340774
H	4.65832	1.76032	-1.31008
H	6.30205	1.5389	0.643812
