18
  This energy is -0.8974 and Call times are: 36444
C	0.518963	0.782626	-0.636062
C	-0.490692	1.09448	0.226329
C	-0.879588	-0.13775	0.835008
C	-0.0732506	-1.09382	0.290839
O	0.786979	-0.549468	-0.609547
H	1.11989	1.40922	-1.31541
H	-0.918671	2.09216	0.414922
H	-1.66904	-0.285419	1.58936
H	-0.0134297	-2.18175	0.458408
C	4.93285	0.686293	-0.769695
C	4.36721	-0.201923	0.120402
N	5.31735	-0.827255	0.857093
C	6.46804	-0.328874	0.425659
N	6.28945	0.587641	-0.555002
H	4.48107	1.35915	-1.51582
H	3.29056	-0.402755	0.244237
H	7.47084	-0.599984	0.793266
H	7.04117	1.12139	-1.05628
