18
  This energy is -1.2495 and Call times are: 209943
C	-0.708608	0.88214	0.0781369
C	-0.928296	-0.291812	0.736885
C	0.165331	-1.14375	0.392934
C	0.956778	-0.415194	-0.445634
O	0.438186	0.824469	-0.648877
H	-1.28549	1.82095	0.0450238
H	-1.77549	-0.533591	1.39863
H	0.33466	-2.17739	0.734979
H	1.90157	-0.661772	-0.957321
C	4.15078	0.87837	0.228551
C	4.56968	0.450071	-1.01331
N	5.43599	-0.586522	-0.906106
C	5.55408	-0.800483	0.397313
N	4.79882	0.0570032	1.12387
H	3.46042	1.6827	0.528532
H	4.26234	0.870443	-1.98475
H	6.18006	-1.572	0.873905
H	4.72161	0.0898759	2.16992
