18
  This energy is -1.5983 and Call times are: 74550
C	-0.746777	0.786609	0.33162
C	0.238187	0.322252	1.15296
C	0.962508	-0.642456	0.388224
C	0.356226	-0.682456	-0.832921
O	-0.689583	0.183899	-0.88513
H	-1.54018	1.53496	0.492066
H	0.434942	0.628354	2.193
H	1.83251	-1.23304	0.717451
H	0.570647	-1.2764	-1.73653
C	4.19255	-0.393983	-0.854037
C	5.40426	-0.928759	-0.470753
N	5.95014	-0.221434	0.548178
C	5.08038	0.748459	0.796067
N	4.00373	0.687567	-0.0229014
H	3.47518	-0.696437	-1.63343
H	5.8944	-1.8123	-0.911175
H	5.18242	1.53006	1.56608
H	3.18175	1.33995	-0.024439
