18
  This energy is -1.0794 and Call times are: 90240
C	0.961964	-0.2501	-0.546329
C	0.403945	0.993972	-0.58201
C	-0.77929	0.914744	0.214103
C	-0.839876	-0.370749	0.665999
O	0.215568	-1.09621	0.211297
H	1.87564	-0.655173	-1.01148
H	0.787111	1.8787	-1.11544
H	-1.49593	1.72583	0.420658
H	-1.57256	-0.886062	1.30856
C	5.76156	-0.895224	0.0607574
C	5.17635	-0.233352	1.11934
N	4.34892	0.747989	0.684786
C	4.42054	0.695114	-0.638353
N	5.25924	-0.279189	-1.06368
H	6.47609	-1.73307	0.0290851
H	5.33634	-0.446325	2.18887
H	3.87977	1.34641	-1.34377
H	5.48403	-0.519523	-2.06016
