18
  This energy is -1.0507 and Call times are: 156176
C	-0.21004	0.986162	-0.519393
C	0.931121	0.764978	0.194192
C	0.830663	-0.571531	0.687924
C	-0.363018	-1.04908	0.232467
O	-1.01183	-0.111101	-0.506617
H	-0.564918	1.86933	-1.07556
H	1.76044	1.47205	0.356591
H	1.56661	-1.10673	1.30924
H	-0.857674	-2.02553	0.363278
C	4.58173	0.0432396	0.844779
C	5.03017	1.09382	0.0725631
N	5.97936	0.685455	-0.804251
C	6.11922	-0.613525	-0.576851
N	5.29838	-1.04859	0.408304
H	3.82846	-0.00314638	1.64726
H	4.68584	2.13915	0.132375
H	6.80833	-1.29364	-1.10298
H	5.22237	-2.03054	0.770597
