18
  This energy is -0.9692 and Call times are: 186362
C	-0.62721	-0.656858	0.679372
C	-0.158531	-1.08995	-0.526095
C	0.576043	0.00458113	-1.07612
C	0.491405	1.0099	-0.158217
O	-0.239785	0.623346	0.920186
H	-1.23892	-1.15664	1.44832
H	-0.314452	-2.08077	-0.98222
H	1.1029	0.0311103	-2.0435
H	0.901786	2.03304	-0.154576
C	6.19903	-0.366645	-0.206892
C	5.3845	-0.742813	0.8401
N	4.18041	-0.125082	0.768788
C	4.2477	0.631434	-0.31831
N	5.44468	0.520655	-0.941639
H	7.22777	-0.657861	-0.472251
H	5.64407	-1.44888	1.64567
H	3.44931	1.286	-0.703489
H	5.74154	1.01626	-1.81772
