18
  This energy is -0.9018 and Call times are: 77602
C	-0.000156689	-0.462389	1.03566
C	1.00259	0.353131	0.600001
C	0.649838	0.729224	-0.732005
C	-0.53733	0.11033	-0.992726
O	-0.949022	-0.621618	0.0758124
H	-0.153148	-0.984994	1.99417
H	1.90058	0.659153	1.16041
H	1.21995	1.38482	-1.40969
H	-1.18114	0.111022	-1.88758
C	5.09898	0.561885	0.760231
C	4.70673	-0.259921	-0.275103
N	5.77879	-0.740352	-0.950658
C	6.83212	-0.218576	-0.336755
N	6.47469	0.573928	0.701404
H	4.51595	1.12036	1.50971
H	3.66938	-0.514797	-0.546741
H	7.88772	-0.383857	-0.606259
H	7.12219	1.09775	1.33986
