18
  This energy is -1.8092 and Call times are: 146378
C	-0.609123	0.336924	-0.895462
C	-0.184192	1.20476	0.0671734
C	0.539841	0.416053	1.0126
C	0.493441	-0.864127	0.544243
O	-0.204256	-0.930865	-0.620135
H	-1.19858	0.49485	-1.81353
H	-0.362696	2.29132	0.107454
H	1.03432	0.769513	1.93165
H	0.911404	-1.80361	0.941643
C	4.25253	1.09508	-0.34947
C	4.16897	0.639469	0.949216
N	3.85776	-0.678995	0.985421
C	3.74866	-1.03995	-0.285969
N	3.97756	-0.00580944	-1.12962
H	4.48059	2.09156	-0.760006
H	4.32766	1.23847	1.86073
H	3.50314	-2.04877	-0.655069
H	3.95069	-0.0367431	-2.17823
