18
  This energy is -0.7964 and Call times are: 115943
C	-1.05268	0.341095	0.248834
C	-0.0408305	1.21992	-0.00454888
C	1.11276	0.421361	-0.272237
C	0.704014	-0.874955	-0.158804
O	-0.615629	-0.942619	0.158963
H	-2.11368	0.500939	0.501798
H	-0.100778	2.32015	-0.00309663
H	2.12506	0.779334	-0.519599
H	1.24812	-1.82623	-0.278301
C	4.82956	0.169688	0.643845
C	5.6936	1.13813	0.178352
N	6.70853	0.587372	-0.530938
C	6.47501	-0.717791	-0.505565
N	5.35357	-1.02029	0.190467
H	3.90955	0.240734	1.24558
H	5.60286	2.2244	0.341585
H	7.09321	-1.4967	-0.980282
H	4.95853	-1.97871	0.353654
