18
  This energy is -1.3887 and Call times are: 6104
C	-0.621916	0.684207	0.656873
C	0.423582	-0.0438713	1.14391
C	0.947517	-0.76888	0.0303749
C	0.175937	-0.419843	-1.03884
O	-0.787449	0.466779	-0.674418
H	-1.31699	1.38455	1.14844
H	0.789164	-0.0679724	2.18308
H	1.80009	-1.46687	0.0345129
H	0.209866	-0.728277	-2.09665
C	5.26131	0.0405539	1.03362
C	5.4744	-0.859453	0.0110166
N	4.64966	-0.613806	-1.03587
C	3.92767	0.434606	-0.664139
N	4.25885	0.866213	0.575873
H	5.73626	0.148311	2.02173
H	6.20846	-1.68165	0.00984498
H	3.14296	0.926415	-1.26128
H	3.83308	1.6756	1.09053
