18
  This energy is -0.6817 and Call times are: 120219
C	0.530667	0.900393	0.440552
C	1.20426	-0.199081	-0.00420393
C	0.206057	-1.10341	-0.479491
C	-0.989401	-0.47673	-0.28322
O	-0.809972	0.748047	0.277795
H	0.885089	1.84357	0.887828
H	2.29467	-0.357398	0.00181466
H	0.368647	-2.1023	-0.915248
H	-2.02388	-0.791842	-0.497258
C	6.47906	-0.152547	-0.94905
C	5.55876	-1.04319	-0.438222
N	4.95384	-0.541386	0.665756
C	5.49679	0.656011	0.839147
N	6.42211	0.936872	-0.108746
H	7.14816	-0.21481	-1.82196
H	5.32042	-2.03887	-0.846466
H	5.25337	1.36824	1.64395
H	6.98827	1.81686	-0.188378
