18
  This energy is -1.768 and Call times are: 134654
C	0.456896	-0.928084	0.465088
C	-0.35001	-0.983071	-0.633208
C	-0.721258	0.367356	-0.913633
C	-0.108443	1.12836	0.0380542
O	0.615251	0.353617	0.888381
H	0.973457	-1.71913	1.03312
H	-0.653361	-1.8842	-1.19003
H	-1.36968	0.721445	-1.73111
H	-0.108437	2.2163	0.215907
C	4.3132	0.458811	1.00192
C	3.99881	1.14244	-0.15348
N	3.54883	0.298432	-1.11353
C	3.58393	-0.904217	-0.555828
N	4.03759	-0.860405	0.719266
H	4.70062	0.806152	1.9729
H	4.0886	2.22954	-0.31157
H	3.28865	-1.85089	-1.0363
H	4.15668	-1.67599	1.3688
