18
  This energy is -0.264 and Call times are: 38633
C	0.608758	-0.943234	-0.161629
C	0.936567	-0.0151702	0.782623
C	-0.0519136	1.01094	0.682047
C	-0.89651	0.619339	-0.314786
O	-0.508074	-0.571892	-0.841189
H	1.08315	-1.89718	-0.444791
H	1.78895	-0.0497036	1.48001
H	-0.118319	1.93017	1.28595
H	-1.79749	1.09312	-0.73789
C	6.59108	-0.810334	0.848619
C	6.84693	-0.986586	-0.494744
N	6.63932	0.160236	-1.18627
C	6.25614	1.04458	-0.275375
N	6.21134	0.507979	0.967059
H	6.6504	-1.50652	1.70029
H	7.17759	-1.9207	-0.977385
H	5.99622	2.09871	-0.463771
H	5.93917	1.00206	1.85197
