18
  This energy is -1.085 and Call times are: 174725
C	-0.919443	-0.440145	-0.497291
C	-0.37417	0.746777	-0.890061
C	0.752566	0.960232	-0.0385797
C	0.796361	-0.115095	0.799351
O	-0.21732	-0.980369	0.533336
H	-1.79455	-1.00021	-0.865772
H	-0.729724	1.40587	-1.69831
H	1.44431	1.81773	-0.0553836
H	1.489	-0.378156	1.61562
C	4.35972	-0.529429	-0.150407
C	4.70531	0.744362	-0.549371
N	5.98688	1.0305	-0.214386
C	6.43464	-0.0616209	0.390096
N	5.49109	-1.03078	0.453608
H	3.4201	-1.09572	-0.250242
H	4.05288	1.46205	-1.07293
H	7.44524	-0.205158	0.805208
H	5.60053	-1.98274	0.881457
