18
  This energy is -2.5132 and Call times are: 86633
C	-0.206858	-1.11183	-0.0863395
C	-0.265613	-0.272414	-1.1598
C	0.0517479	1.0267	-0.6581
C	0.276422	0.866478	0.677648
O	0.122827	-0.433202	1.04405
H	-0.376083	-2.19748	0.00292556
H	-0.508111	-0.541099	-2.20052
H	0.104235	1.96553	-1.2325
H	0.548773	1.58841	1.46498
C	3.63014	0.299104	1.13079
C	3.66402	-0.974003	0.602407
N	3.47799	-0.951111	-0.739747
C	3.32925	0.331322	-1.04284
N	3.41294	1.12535	0.0508237
H	3.74149	0.663439	2.16443
H	3.81938	-1.90865	1.16557
H	3.15662	0.744051	-2.04986
H	3.32847	2.17114	0.0720382
