18
  This energy is -1.0703 and Call times are: 188686
C	-0.3835	0.687548	-0.81646
C	-0.561026	-0.664205	-0.85672
C	0.0514862	-1.17447	0.32843
C	0.549238	-0.0894821	0.988297
O	0.292638	1.05599	0.303408
H	-0.686774	1.48584	-1.5136
H	-1.07204	-1.24385	-1.6422
H	0.109798	-2.2284	0.644542
H	1.09821	-0.00116591	1.94018
C	5.64606	-0.204874	0.498886
C	4.64792	0.617307	0.977301
N	3.57618	0.618247	0.147914
C	3.90817	-0.200239	-0.841269
N	5.14673	-0.721915	-0.675647
H	6.6431	-0.450429	0.897819
H	4.68189	1.20984	1.90606
H	3.28182	-0.453074	-1.71189
H	5.63383	-1.39249	-1.31933
