18
  This energy is -1.3586 and Call times are: 61333
C	-0.407885	-0.983444	0.390984
C	-0.0447283	-0.809782	-0.912217
C	0.412432	0.539557	-1.01423
C	0.288282	1.07134	0.235634
O	-0.211179	0.155196	1.1064
H	-0.814585	-1.85703	0.926424
H	-0.093849	-1.55692	-1.72059
H	0.788238	1.04662	-1.91742
H	0.517675	2.07523	0.62913
C	5.48625	0.875504	-0.0200097
C	5.65159	-0.396884	-0.52482
N	4.54075	-1.14818	-0.329628
C	3.6895	-0.344922	0.293903
N	4.21268	0.88631	0.503534
H	6.1622	1.74505	0.00295186
H	6.55252	-0.786264	-1.02638
H	2.67011	-0.607316	0.619803
H	3.73849	1.69506	0.975051
