18
  This energy is -2.4265 and Call times are: 70911
C	0.184868	0.892986	0.674389
C	0.80313	-0.307574	0.86618
C	0.320355	-1.1657	-0.16855
C	-0.550305	-0.413774	-0.901308
O	-0.645239	0.846129	-0.400663
H	0.249863	1.84519	1.22605
H	1.52658	-0.56323	1.65697
H	0.595068	-2.21898	-0.339531
H	-1.15705	-0.655564	-1.78937
C	4.07273	0.994605	0.0488429
C	5.40993	0.844021	0.349434
N	5.8063	-0.441245	0.183622
C	4.71913	-1.08555	-0.218305
N	3.64746	-0.26352	-0.3151
H	3.41559	1.87855	0.0675418
H	6.09581	1.63974	0.682979
H	4.65212	-2.15954	-0.45559
H	2.67742	-0.533199	-0.611012
