18
  This energy is -1.161 and Call times are: 196563
C	-0.901912	0.322776	0.607266
C	-0.938485	0.210443	-0.751564
C	0.367924	-0.212944	-1.14419
C	1.0875	-0.321963	0.00936829
O	0.327684	0.00143615	1.08877
H	-1.67322	0.61793	1.33749
H	-1.79909	0.406101	-1.41124
H	0.721614	-0.410822	-2.16881
H	2.13393	-0.61591	0.193285
C	5.15379	-0.966278	-0.654024
C	5.55063	-0.780088	0.653262
N	5.21181	0.45527	1.09553
C	4.60708	1.03326	0.0665291
N	4.54708	0.216875	-1.01213
H	5.25676	-1.82824	-1.33222
H	6.07535	-1.515	1.28526
H	4.18928	2.05275	0.0487642
H	4.11979	0.442258	-1.94373
