18
  This energy is -1.5649 and Call times are: 145555
C	0.468093	0.999136	-0.26271
C	-0.452979	0.863595	0.734099
C	-0.800099	-0.521668	0.759995
C	-0.0605034	-1.11035	-0.223275
O	0.719668	-0.196375	-0.858087
H	1.0117	1.88043	-0.640953
H	-0.848308	1.65929	1.38578
H	-1.51807	-1.01357	1.43575
H	0.000123638	-2.15652	-0.565486
C	3.91357	-1.0505	-0.211972
C	4.72422	-0.327443	-1.0612
N	5.10705	0.841988	-0.493413
C	4.53607	0.844405	0.703502
N	3.80582	-0.275012	0.92081
H	3.42214	-2.02937	-0.329649
H	5.03972	-0.628621	-2.07343
H	4.61972	1.64079	1.46047
H	3.2613	-0.507822	1.78715
