18
  This energy is -2.1505 and Call times are: 193046
C	-0.325572	-1.06763	0.201421
C	0.111959	-0.656121	-1.02316
C	0.424884	0.730234	-0.880977
C	0.150953	1.04352	0.417939
O	-0.308319	-0.0425641	1.09358
H	-0.672708	-2.04999	0.561593
H	0.205008	-1.2675	-1.93511
H	0.808794	1.40746	-1.66077
H	0.239221	1.99014	0.975946
C	4.58712	-0.909627	0.741675
C	5.62562	-0.217189	0.155846
N	5.16236	0.773299	-0.644677
C	3.84149	0.695627	-0.555808
N	3.44512	-0.303221	0.268075
H	4.58017	-1.76255	1.43882
H	6.70086	-0.414545	0.296453
H	3.11725	1.34546	-1.07293
H	2.45627	-0.565701	0.501587
