18
  This energy is -1.4017 and Call times are: 178254
C	-0.494561	0.84136	-0.577861
C	0.706141	0.994317	0.0508614
C	0.992789	-0.266216	0.658322
C	-0.0580514	-1.07819	0.347185
O	-0.975729	-0.418163	-0.407298
H	-1.1036	1.54277	-1.17146
H	1.32763	1.90359	0.0835851
H	1.88072	-0.528601	1.25568
H	-0.268244	-2.13069	0.598811
C	4.13036	0.169951	-0.774553
C	5.07825	1.09008	-0.379574
N	5.92987	0.555077	0.528732
C	5.51189	-0.692216	0.696603
N	4.42963	-0.972999	-0.0672402
H	3.29199	0.245105	-1.48521
H	5.16291	2.1304	-0.733719
H	5.96186	-1.44249	1.36657
H	3.9163	-1.88719	-0.112108
