18
  This energy is -0.2404 and Call times are: 145844
C	1.05021	-0.0836999	-0.420052
C	0.617729	1.02253	0.250457
C	-0.736265	0.753171	0.616876
C	-1.01166	-0.493884	0.137934
O	0.0680775	-1.01982	-0.498126
H	2.02077	-0.324428	-0.884085
H	1.19434	1.93653	0.465457
H	-1.41819	1.4168	1.17246
H	-1.92505	-1.1094	0.183737
C	6.83172	0.322083	-0.023608
C	6.31923	-0.922699	-0.321962
N	4.97053	-0.940105	-0.19078
C	4.64755	0.289204	0.187518
N	5.73484	1.08806	0.302472
H	7.8649	0.704288	-0.0203648
H	6.89847	-1.80855	-0.629527
H	3.62992	0.658062	0.393923
H	5.74109	2.09843	0.58598
