18
  This energy is -1.2745 and Call times are: 54171
C	0.531301	0.728217	-0.688346
C	-0.522984	1.09892	0.0935995
C	-0.913865	-0.0759932	0.805583
C	-0.0639357	-1.06094	0.395868
O	0.825211	-0.587484	-0.516418
H	1.14966	1.29897	-1.40047
H	-0.979612	2.09936	0.162148
H	-1.73381	-0.167618	1.53591
H	0.010554	-2.12495	0.674402
C	3.9252	-0.819139	-0.508679
C	4.43094	-0.843272	0.773816
N	5.16837	0.26465	1.02919
C	5.1203	0.973412	-0.0906141
N	4.38285	0.362379	-1.0479
H	3.29311	-1.53525	-1.05748
H	4.27694	-1.64026	1.51943
H	5.60713	1.9467	-0.263654
H	4.19542	0.720455	-2.01636
