18
  This energy is -1.2546 and Call times are: 197108
C	0.890856	-0.388712	0.584533
C	-0.0414293	0.438664	1.13831
C	-0.990934	0.704916	0.105028
C	-0.555058	0.0167386	-0.988954
O	0.592907	-0.656781	-0.714072
H	1.80033	-0.849661	1.00362
H	-0.0587532	0.822934	2.17084
H	-1.89082	1.33667	0.177138
H	-0.966726	-0.0737481	-2.00758
C	4.70248	0.855717	-0.636643
C	5.95829	0.871157	-0.0675666
N	6.20758	-0.28298	0.597514
C	5.1106	-1.01164	0.441628
N	4.17366	-0.368975	-0.295068
H	4.1656	1.60459	-1.24038
H	6.68893	1.69439	-0.124959
H	4.94049	-2.02253	0.845848
H	3.22512	-0.734073	-0.556278
