18
  This energy is -1.0162 and Call times are: 117433
C	-0.809223	-0.576355	-0.547152
C	-0.461992	-0.851193	0.742914
C	0.576378	0.0721684	1.07353
C	0.772016	0.829749	-0.0436848
O	-0.065694	0.44741	-1.04322
H	-1.5592	-1.03092	-1.21511
H	-0.893758	-1.62639	1.39617
H	1.10977	0.155233	2.0341
H	1.46683	1.65996	-0.251621
C	5.6138	0.203961	1.03899
C	4.4353	0.750722	0.577118
N	4.13837	0.294547	-0.66395
C	5.1289	-0.53207	-0.970834
N	6.04376	-0.620753	0.0235284
H	6.15874	0.338884	1.98682
H	3.79394	1.46619	1.11714
H	5.23364	-1.09843	-1.91025
H	6.91468	-1.20621	0.0213462
