18
  This energy is -0.9831 and Call times are: 37998
C	-0.383838	0.31016	1.02121
C	-0.00305416	1.21815	0.077322
C	0.413413	0.453695	-1.05505
C	0.250361	-0.853964	-0.703182
O	-0.235677	-0.960176	0.56153
H	-0.772512	0.438911	2.04474
H	-0.0143127	2.31611	0.169256
H	0.789257	0.841097	-2.01566
H	0.441159	-1.78888	-1.25524
C	4.95666	-1.15778	0.155218
C	4.11016	-0.301968	-0.517219
N	4.58489	0.967244	-0.501415
C	5.72157	0.899076	0.178242
N	5.98975	-0.360897	0.595536
H	4.89892	-2.24134	0.345231
H	3.16539	-0.577573	-1.0135
H	6.39657	1.74149	0.399475
H	6.82545	-0.671553	1.14904
