18
  This energy is -1.6302 and Call times are: 102834
C	0.0684073	1.12843	-0.0914964
C	0.707428	0.285696	-0.952792
C	0.384376	-1.03606	-0.518382
C	-0.423539	-0.884356	0.570026
O	-0.627044	0.43095	0.844924
H	0.0299204	2.22889	-0.0390149
H	1.34257	0.566646	-1.80822
H	0.719248	-1.98368	-0.970026
H	-0.911521	-1.62299	1.22695
C	4.57533	0.915128	0.718952
C	3.59806	-0.0509048	0.832331
N	3.6885	-0.957551	-0.170826
C	4.71797	-0.555506	-0.903749
N	5.28629	0.569366	-0.408511
H	4.80744	1.79482	1.34008
H	2.82932	-0.109938	1.61999
H	5.09831	-1.04785	-1.81324
H	6.11133	1.08069	-0.80741
