18
  This energy is -1.2203 and Call times are: 181395
C	-0.348474	0.645338	0.865163
C	0.655698	1.02922	0.0257282
C	0.802006	-0.0314655	-0.919611
C	-0.125675	-0.969877	-0.574408
O	-0.837189	-0.573028	0.513374
H	-0.801713	1.1427	1.73835
H	1.23525	1.96539	0.0679852
H	1.51755	-0.0811859	-1.75604
H	-0.375343	-1.94835	-1.01657
C	5.41641	0.588897	-0.878414
C	4.29593	0.971617	-0.171879
N	3.97615	0.0532783	0.771998
C	4.89475	-0.895546	0.651477
N	5.78576	-0.618981	-0.329958
H	5.95899	1.07441	-1.70511
H	3.71253	1.89392	-0.326268
H	4.96166	-1.81419	1.25633
H	6.60235	-1.21174	-0.618176
