18
  This energy is -0.6745 and Call times are: 145459
C	-0.384943	-0.0948409	-1.06265
C	0.874577	-0.477202	-0.705182
C	0.983305	-0.206585	0.693053
C	-0.219371	0.317257	1.06659
O	-1.06702	0.392712	0.006966
H	-0.908522	-0.118248	-2.03248
H	1.64937	-0.906726	-1.3604
H	1.85916	-0.384572	1.33749
H	-0.591666	0.670387	2.04227
C	5.07046	-0.259873	0.793361
C	5.70522	-1.13892	-0.058402
N	6.60741	-0.496871	-0.839651
C	6.53262	0.775642	-0.473945
N	5.62025	0.969869	0.507606
H	4.29237	-0.417148	1.55715
H	5.52839	-2.22491	-0.123225
H	7.12327	1.60655	-0.892223
H	5.37786	1.88322	0.963994
