18
  This energy is -1.518 and Call times are: 22887
C	0.718321	-0.870977	0.108698
C	0.540065	0.0560411	1.0932
C	-0.427413	0.97889	0.590747
C	-0.754963	0.534344	-0.656435
O	-0.0646986	-0.594381	-0.967121
H	1.36424	-1.76253	0.0522523
H	1.03974	0.0868947	2.07476
H	-0.827001	1.86752	1.10529
H	-1.4552	0.926848	-1.41199
C	5.1459	-0.677278	-0.608295
C	4.83549	-0.783983	0.730887
N	3.93746	0.160992	1.10112
C	3.69169	0.851309	-0.00417809
N	4.39611	0.384732	-1.06233
H	5.82465	-1.26241	-1.24896
H	5.24343	-1.52589	1.43659
H	3.00458	1.70802	-0.0945821
H	4.37511	0.760415	-2.04196
