18
  This energy is -0.6748 and Call times are: 190857
C	0.0654153	-0.00533895	1.1323
C	-1.11451	-0.169407	0.468039
C	-0.792983	-0.103996	-0.92209
C	0.555036	0.0942693	-0.984606
O	1.09551	0.157021	0.26077
H	0.301627	0.0150722	2.20888
H	-2.11129	-0.32126	0.912396
H	-1.49091	-0.195049	-1.76985
H	1.23862	0.205694	-1.84225
C	6.83272	-0.319017	-0.0163291
C	6.31552	0.873833	0.442754
N	4.96705	0.904438	0.311603
C	4.6489	-0.264978	-0.226797
N	5.73905	-1.03838	-0.443647
H	7.86714	-0.694366	-0.0674762
H	6.8912	1.71293	0.866263
H	3.63293	-0.606309	-0.482762
H	5.74921	-2.00234	-0.858294
