18
  This energy is -1.2486 and Call times are: 154322
C	-0.688363	-0.544683	-0.718246
C	-0.570504	-0.901603	0.592895
C	0.375269	0.00522811	1.16148
C	0.751867	0.836248	0.147599
O	0.112127	0.514806	-1.00757
H	-1.29927	-0.95945	-1.53679
H	-1.09678	-1.72124	1.10799
H	0.728085	0.0284799	2.20507
H	1.45691	1.68325	0.120182
C	5.32789	0.660868	-0.965396
C	6.27396	-0.165634	-0.397063
N	5.78678	-0.777405	0.709688
C	4.54321	-0.332123	0.827506
N	4.21895	0.537608	-0.158404
H	5.3641	1.30649	-1.85725
H	7.29934	-0.331483	-0.765769
H	3.82663	-0.610452	1.61699
H	3.29821	1.02515	-0.28411
