18
  This energy is -1.1449 and Call times are: 102535
C	-0.219373	0.776033	-0.797527
C	-0.683623	-0.50404	-0.876636
C	-0.205575	-1.16644	0.295036
C	0.508603	-0.232675	0.986704
O	0.510684	0.959389	0.334025
H	-0.337565	1.63962	-1.47244
H	-1.3008	-0.938265	-1.67953
H	-0.378408	-2.21636	0.581202
H	1.05557	-0.290752	1.94206
C	4.30635	0.516747	-0.79807
C	3.98289	-0.551201	0.0118692
N	5.02212	-0.88895	0.813388
C	5.98663	-0.0337847	0.501873
N	5.60416	0.834078	-0.464627
H	3.72426	1.0554	-1.56263
H	3.01827	-1.08406	0.0322549
H	6.99238	0.00125688	0.950725
H	6.18549	1.60232	-0.880698
