18
  This energy is -0.7032 and Call times are: 199726
C	1.04184	-0.363711	0.26208
C	-0.0013431	-0.443566	1.13716
C	-1.12835	0.106183	0.453246
C	-0.674382	0.473452	-0.779392
O	0.648807	0.193766	-0.913402
H	2.09827	-0.664829	0.354432
H	0.0205899	-0.848935	2.16151
H	-2.15397	0.211803	0.8419
H	-1.18607	0.937257	-1.63864
C	6.89129	-0.355816	-0.259938
C	6.02478	-0.935571	0.642386
N	4.84841	-0.264495	0.690539
C	4.98461	0.727803	-0.178608
N	6.19888	0.715913	-0.777775
H	7.91743	-0.621206	-0.560191
H	6.22734	-1.82605	1.25952
H	4.22644	1.49168	-0.415011
H	6.54662	1.39393	-1.49932
