18
  This energy is -1.6962 and Call times are: 132827
C	-0.418698	1.0152	0.283671
C	-0.591731	0.474307	-0.956439
C	0.0696813	-0.791304	-0.926753
C	0.588505	-0.912087	0.328877
O	0.299823	0.182057	1.08155
H	-0.752976	1.97211	0.717057
H	-1.13103	0.921678	-1.8068
H	0.145162	-1.52031	-1.74952
H	1.17452	-1.71614	0.803568
C	4.64674	0.0574885	0.98159
C	4.38816	-1.06626	0.225632
N	3.60599	-0.768746	-0.840302
C	3.3802	0.534613	-0.745978
N	3.98627	1.07872	0.335784
H	5.23441	0.198042	1.90269
H	4.75195	-2.08637	0.430245
H	2.77811	1.14066	-1.44199
H	3.95837	2.08651	0.62705
