18
  This energy is -0.8364 and Call times are: 198605
C	-0.522877	0.961481	0.297581
C	-1.19893	-0.114275	-0.198476
C	-0.211036	-1.11457	-0.450655
C	0.981498	-0.561774	-0.0864384
O	0.809772	0.705749	0.372809
H	-0.870213	1.95366	0.629528
H	-2.2844	-0.195278	-0.369638
H	-0.378261	-2.12534	-0.856216
H	2.00872	-0.961403	-0.105374
C	6.04143	0.955969	0.642593
C	4.79359	0.502227	0.270904
N	4.8855	-0.630076	-0.467982
C	6.18541	-0.877842	-0.55435
N	6.92441	0.0498786	0.0989541
H	6.35319	1.83037	1.2357
H	3.82862	0.971588	0.522643
H	6.6505	-1.72495	-1.08381
H	7.97066	0.0742796	0.176562
