18
  This energy is -0.8128 and Call times are: 99482
C	-0.398838	0.581012	-0.888681
C	-0.548374	-0.769731	-0.772456
C	0.0762839	-1.12755	0.461191
C	0.552396	0.0361189	0.989927
O	0.271131	1.08965	0.178766
H	-0.719592	1.28738	-1.67188
H	-1.0484	-1.44626	-1.48406
H	0.156877	-2.13667	0.89625
H	1.10079	0.244619	1.92322
C	5.88735	0.874674	-0.0109212
C	4.89299	0.644767	-0.938032
N	4.16736	-0.453015	-0.614231
C	4.7095	-0.902433	0.509484
N	5.74999	-0.136107	0.914088
H	6.65731	1.65985	0.0538883
H	4.68615	1.25133	-1.83477
H	4.3837	-1.7885	1.07779
H	6.33972	-0.283801	1.76946
