18
  This energy is -1.4436 and Call times are: 139059
C	-0.112327	-1.12816	0.0323494
C	-0.918329	-0.335453	-0.730775
C	-0.473507	1.00353	-0.508543
C	0.565051	0.910852	0.370765
O	0.799359	-0.383687	0.711764
H	-0.086218	-2.22076	0.176543
H	-1.74335	-0.660964	-1.38459
H	-0.885069	1.92259	-0.9558
H	1.21009	1.68131	0.824172
C	3.55097	-0.810454	-0.554085
C	3.91268	0.430188	-1.03483
N	4.66354	1.10472	-0.130547
C	4.76725	0.285655	0.90724
N	4.11349	-0.882061	0.700755
H	2.95301	-1.62043	-1.00122
H	3.64532	0.850673	-2.01797
H	5.31022	0.490928	1.84387
H	4.04768	-1.68835	1.36921
