18
  This energy is -0.5285 and Call times are: 186458
C	-0.39164	-0.59428	0.883092
C	-1.21767	-0.058761	-0.0609793
C	-0.365203	0.605056	-0.9952
C	0.906501	0.416586	-0.539547
O	0.909075	-0.313748	0.606584
H	-0.603069	-1.18781	1.78767
H	-2.317	-0.124588	-0.095986
H	-0.672178	1.15624	-1.89856
H	1.88119	0.746692	-0.934839
C	6.1871	-0.662246	-0.929569
C	5.06657	0.129347	-0.791926
N	5.05471	0.754609	0.41033
C	6.16366	0.35244	1.01623
N	6.88062	-0.502789	0.249325
H	6.52866	-1.30627	-1.75546
H	4.26647	0.260517	-1.53857
H	6.49902	0.6533	2.02184
H	7.79129	-0.957722	0.50421
