18
  This energy is -1.0744 and Call times are: 165107
C	-0.338651	0.661353	-0.85693
C	0.475797	1.1155	0.13846
C	0.674801	0.00711239	1.01709
C	-0.0356055	-1.0265	0.481062
O	-0.660811	-0.644737	-0.663658
H	-0.754508	1.1618	-1.7468
H	0.894437	2.12931	0.243447
H	1.27841	-0.00931145	1.93877
H	-0.174569	-2.06827	0.813723
C	6.05535	-0.304771	-0.422435
C	4.97432	0.151249	-1.14671
N	3.91774	0.408416	-0.337995
C	4.34169	0.113058	0.883341
N	5.6242	-0.321375	0.885246
H	7.06718	-0.608518	-0.734627
H	4.93782	0.299311	-2.23831
H	3.75412	0.196557	1.81179
H	6.18357	-0.614921	1.72322
