18
  This energy is -0.9167 and Call times are: 146874
C	-0.0152088	-1.12667	0.129575
C	-1.13876	-0.362537	0.24835
C	-0.721447	0.984365	0.0207019
C	0.62028	0.924405	-0.21709
O	1.06835	-0.357128	-0.154522
H	0.142963	-2.21363	0.223082
H	-2.15906	-0.712272	0.47367
H	-1.35386	1.88656	0.0344243
H	1.3591	1.71152	-0.440333
C	4.80324	0.70397	0.635647
C	4.49543	-0.551956	0.157058
N	5.53362	-1.07841	-0.536857
C	6.48189	-0.152608	-0.488937
N	6.09009	0.941086	0.206704
H	4.21717	1.42183	1.23125
H	3.54284	-1.08766	0.300026
H	7.4819	-0.224081	-0.946211
H	6.65833	1.80507	0.385273
