18
  This energy is -0.8763 and Call times are: 146970
C	0.547857	-0.801446	0.586463
C	-0.649164	-1.03337	-0.0248673
C	-1.01355	0.197714	-0.650786
C	-0.00702628	1.07326	-0.366692
O	0.954927	0.479934	0.388041
H	1.20224	-1.45643	1.18482
H	-1.21844	-1.97673	-0.0341164
H	-1.92151	0.398634	-1.24182
H	0.140354	2.1312	-0.639243
C	5.05686	0.634316	0.829295
C	4.4665	-0.0206158	-0.230748
N	5.39264	-0.653944	-0.990798
C	6.55313	-0.392904	-0.404498
N	6.40377	0.380262	0.697089
H	4.62811	1.2429	1.64129
H	3.38891	-0.0475099	-0.46076
H	7.54263	-0.742957	-0.740039
H	7.16833	0.721223	1.3299
