18
  This energy is -1.4345 and Call times are: 14191
C	-0.605707	-0.704526	-0.65051
C	-0.954863	-0.416463	0.636146
C	0.0367569	0.492577	1.1162
C	0.90434	0.679768	0.080522
O	0.527287	-0.0437133	-1.00641
H	-1.07422	-1.3553	-1.40698
H	-1.82356	-0.805126	1.19148
H	0.0897615	0.948861	2.11774
H	1.81557	1.29384	-0.00799613
C	4.07642	-0.527522	1.00105
C	4.07162	-1.07766	-0.263253
N	4.5077	-0.185905	-1.18582
C	4.78199	0.913269	-0.496465
N	4.5385	0.757852	0.826468
H	3.79316	-0.945804	1.98
H	3.76132	-2.10205	-0.526289
H	5.16362	1.86039	-0.91066
H	4.67561	1.4791	1.57631
