18
  This energy is -0.8568 and Call times are: 71808
C	0.142429	-1.08883	0.283844
C	1.12602	-0.157556	0.444007
C	0.575513	1.07624	-0.0194652
C	-0.695888	0.790007	-0.421935
O	-0.977225	-0.527619	-0.243822
H	0.115176	-2.16868	0.503924
H	2.13773	-0.322854	0.847996
H	1.07553	2.05775	-0.04627
H	-1.48912	1.42686	-0.84673
C	5.23516	-0.396267	1.00598
C	4.86669	0.738327	0.314553
N	5.6137	0.892082	-0.805645
C	6.44245	-0.143188	-0.809147
N	6.25371	-0.94928	0.262387
H	4.85725	-0.834659	1.94328
H	4.07521	1.44874	0.603911
H	7.20734	-0.359189	-1.57237
H	6.78252	-1.82809	0.484423
