18
  This energy is -0.9859 and Call times are: 105813
C	-0.424453	-0.185019	-1.03538
C	-0.458623	-1.12996	-0.0523765
C	0.162162	-0.531975	1.08655
C	0.520883	0.725598	0.698991
O	0.170264	0.954482	-0.593947
H	-0.784856	-0.200344	-2.07707
H	-0.878827	-2.14615	-0.122282
H	0.318973	-0.99234	2.07527
H	1.02424	1.54231	1.242
C	4.54076	-0.712045	0.665952
C	4.09497	0.164482	-0.300541
N	5.12878	0.828289	-0.87246
C	6.21182	0.365331	-0.263087
N	5.90995	-0.565525	0.672849
H	3.99865	-1.40654	1.32726
H	3.04589	0.329809	-0.595434
H	7.25059	0.673588	-0.463485
H	6.58945	-1.07799	1.28678
