18
  This energy is -0.702 and Call times are: 6585
C	-0.544858	0.515196	0.850943
C	-1.08523	0.394562	-0.39558
C	-0.113571	-0.301875	-1.17723
C	0.934793	-0.545344	-0.339355
O	0.688495	-0.0532322	0.903293
H	-0.931811	0.97736	1.77394
H	-2.06935	0.759403	-0.730995
H	-0.194535	-0.584366	-2.23918
H	1.89981	-1.0522	-0.503942
C	6.01507	0.956545	0.452563
C	4.89854	0.922061	-0.355715
N	4.57924	-0.350813	-0.693867
C	5.4942	-1.10312	-0.0976375
N	6.38243	-0.361687	0.605859
H	6.55616	1.79781	0.914123
H	4.31765	1.79283	-0.700943
H	5.56031	-2.20212	-0.143059
H	7.19595	-0.722315	1.1621
