18
  This energy is -1.2467 and Call times are: 21496
C	-0.19889	-0.864509	-0.70673
C	1.06304	-0.450648	-0.395904
C	0.904083	0.643561	0.508284
C	-0.440959	0.80176	0.670176
O	-1.12976	-0.110794	-0.0645417
H	-0.562575	-1.67226	-1.36287
H	2.01077	-0.87348	-0.766201
H	1.70406	1.23779	0.978424
H	-1.02583	1.51649	1.27213
C	5.25353	0.311769	1.12442
C	4.63426	1.04999	0.138174
N	4.6346	0.385218	-1.04275
C	5.25174	-0.761049	-0.790083
N	5.64407	-0.853167	0.502657
H	5.4378	0.525833	2.1892
H	4.18722	2.05037	0.257552
H	5.44309	-1.56832	-1.51529
H	6.14947	-1.65856	0.946706
