18
  This energy is -1.0254 and Call times are: 16867
C	-1.00488	-0.065803	-0.52182
C	-0.0205636	0.782371	-0.936676
C	1.07416	0.578181	-0.0422408
C	0.662173	-0.376745	0.840233
O	-0.605098	-0.781392	0.562211
H	-2.02049	-0.251778	-0.908062
H	-0.0612973	1.48166	-1.78722
H	2.05096	1.08768	-0.0614162
H	1.16975	-0.84683	1.69851
C	4.5881	-0.439489	-0.600317
C	5.58692	-1.15333	0.0273189
N	6.4783	-0.325198	0.624097
C	6.03416	0.89775	0.367662
N	4.89713	0.882064	-0.36754
H	3.7086	-0.767467	-1.1769
H	5.68035	-2.25108	0.0602369
H	6.50307	1.83991	0.694273
H	4.35439	1.71746	-0.697392
