18
  This energy is -0.9813 and Call times are: 140985
C	-0.0868336	-0.535371	0.996112
C	1.02356	-0.63103	0.209817
C	0.757226	0.170479	-0.942038
C	-0.492402	0.685174	-0.757942
O	-1.02274	0.264504	0.420529
H	-0.330895	-0.981942	1.974
H	1.9384	-1.20812	0.419865
H	1.42452	0.338387	-1.80263
H	-1.10704	1.35382	-1.38275
C	5.86979	0.799639	-0.780336
C	4.6605	0.787256	-0.118072
N	4.5672	-0.282307	0.708875
C	5.71425	-0.930984	0.560192
N	6.53352	-0.31849	-0.327078
H	6.29097	1.50159	-1.5175
H	3.85365	1.53091	-0.222126
H	6.006	-1.85956	1.07677
H	7.49175	-0.635054	-0.614886
