18
  This energy is -1.3744 and Call times are: 45710
C	-0.219947	-0.586367	-0.94562
C	-0.0798578	0.770373	-0.943417
C	0.18628	1.13376	0.412029
C	0.185331	-0.0329928	1.11847
O	-0.0611203	-1.09358	0.305187
H	-0.430758	-1.29827	-1.76049
H	-0.15627	1.44736	-1.80941
H	0.357242	2.14852	0.805911
H	0.344825	-0.239271	2.18957
C	4.01255	0.407767	0.934728
C	3.60512	-0.586285	0.0704314
N	4.52976	-0.802344	-0.896455
C	5.50709	0.0544124	-0.63299
N	5.24262	0.806641	0.46145
H	3.53028	0.844964	1.82344
H	2.66055	-1.15146	0.127187
H	6.43885	0.17274	-1.20923
H	5.85747	1.55175	0.871367
