18
  This energy is -1.4097 and Call times are: 183672
C	-0.160381	1.04068	0.421504
C	-1.17406	0.135542	0.30511
C	-0.587217	-1.0384	-0.258446
C	0.733274	-0.747006	-0.436683
O	1.01154	0.518528	-0.0267999
H	-0.144004	2.07507	0.802319
H	-2.22921	0.280054	0.587749
H	-1.09689	-1.98505	-0.499627
H	1.56619	-1.34604	-0.839999
C	4.38989	1.03746	0.461079
C	4.10018	0.574887	-0.80511
N	4.61317	-0.663895	-1.00201
C	5.21882	-0.968666	0.137692
N	5.11246	0.0248495	1.05159
H	4.1413	1.98401	0.966843
H	3.5302	1.1128	-1.58011
H	5.75541	-1.90587	0.35668
H	5.50552	0.0239384	2.0246
