18
  This energy is -1.3559 and Call times are: 127764
C	-0.193516	1.08279	0.276629
C	-1.0603	0.357956	-0.48736
C	-0.47764	-0.939846	-0.615173
C	0.693763	-0.893516	0.081993
O	0.883269	0.334191	0.633206
H	-0.228075	2.12596	0.63137
H	-2.01428	0.702614	-0.917734
H	-0.890045	-1.80148	-1.16435
H	1.46992	-1.6561	0.258894
C	4.90584	0.0349083	-1.13901
C	6.16648	-0.15976	-0.615526
N	6.1411	-0.141722	0.739296
C	4.86956	0.0633571	1.0551
N	4.08484	0.176552	-0.0426168
H	4.54684	0.0811274	-2.17945
H	7.09388	-0.312904	-1.19114
H	4.45851	0.139139	2.07468
H	3.04846	0.3409	-0.0559626
