18
  This energy is -0.5981 and Call times are: 184120
C	-0.183715	-0.114097	1.11339
C	-1.16133	-0.326362	0.186249
C	-0.553714	-0.0880027	-1.08423
C	0.741568	0.248878	-0.821302
O	0.984984	0.237977	0.515725
H	-0.192936	-0.18002	2.21376
H	-2.20559	-0.62121	0.377792
H	-1.0332	-0.161297	-2.07358
H	1.57779	0.514608	-1.48867
C	6.29713	0.741835	0.173007
C	4.97361	1.07525	-0.0226214
N	4.21033	-0.0320025	-0.189691
C	5.05711	-1.04846	-0.0980562
N	6.32753	-0.633845	0.120392
H	7.18973	1.36537	0.340358
H	4.55577	2.09491	-0.0462088
H	4.80005	-2.11658	-0.183346
H	7.17434	-1.24407	0.228989
