18
  This energy is -0.8598 and Call times are: 164574
C	-0.692466	0.75046	-0.493662
C	-1.136	-0.165047	0.414907
C	0.0132712	-0.9191	0.803099
C	1.05766	-0.397819	0.0974804
O	0.644806	0.622647	-0.699524
H	-1.22132	1.53644	-1.05739
H	-2.16887	-0.296211	0.775566
H	0.048644	-1.75115	1.52458
H	2.1279	-0.661025	0.0738835
C	4.6167	0.355574	0.958342
C	5.31333	-0.824253	0.803893
N	5.86426	-0.908287	-0.431393
C	5.51075	0.215136	-1.04096
N	4.75773	1.01048	-0.244734
H	4.04949	0.761925	1.81081
H	5.4283	-1.61636	1.56165
H	5.7761	0.505872	-2.07018
H	4.35758	1.9475	-0.495995
