18
  This energy is -1.4897 and Call times are: 98822
C	0.588511	-0.871101	0.425722
C	0.800434	0.416726	0.821908
C	-0.118215	1.21274	0.0718701
C	-0.810417	0.341082	-0.716442
O	-0.391812	-0.935837	-0.513314
H	1.06313	-1.81776	0.732033
H	1.53043	0.770635	1.56753
H	-0.242094	2.30654	0.120332
H	-1.614	0.502005	-1.45373
C	3.849	0.78097	-0.459537
C	4.35456	-0.343321	-1.07721
N	5.19437	-1.01706	-0.25422
C	5.20974	-0.313415	0.869733
N	4.41453	0.780103	0.795997
H	3.15012	1.55576	-0.812805
H	4.1284	-0.680419	-2.10193
H	5.78588	-0.553894	1.77774
H	4.2585	1.4917	1.55134
