18
  This energy is -1.7345 and Call times are: 208525
C	-0.145097	1.02138	-0.471314
C	0.750112	0.113701	-0.956186
C	0.64309	-1.03166	-0.109541
C	-0.308071	-0.722791	0.817964
O	-0.800143	0.527202	0.612068
H	-0.406543	2.03953	-0.803379
H	1.41875	0.238223	-1.82309
H	1.21225	-1.97175	-0.189489
H	-0.718428	-1.2983	1.66392
C	4.8859	0.762741	0.892154
C	5.76043	0.623638	-0.164729
N	5.35348	-0.354127	-1.01023
C	4.23077	-0.819833	-0.479897
N	3.9065	-0.178911	0.667997
H	4.89104	1.44251	1.759
H	6.67773	1.21127	-0.332331
H	3.60621	-1.62929	-0.890909
H	3.06864	-0.364042	1.27213
