18
  This energy is -1.0592 and Call times are: 30785
C	0.025879	-1.07684	-0.35517
C	-1.14036	-0.429609	-0.0699629
C	-0.766951	0.886979	0.339031
C	0.594515	0.928071	0.26765
O	1.09541	-0.262677	-0.154531
H	0.22595	-2.10306	-0.70458
H	-2.16119	-0.838313	-0.140514
H	-1.44069	1.70203	0.648638
H	1.31415	1.73375	0.487315
C	4.57167	-0.785253	0.611288
C	5.82863	-0.310214	0.920363
N	6.25318	0.585764	-0.00348434
C	5.26336	0.666259	-0.882347
N	4.22662	-0.141362	-0.555987
H	3.92004	-1.51171	1.12234
H	6.43679	-0.597922	1.79341
H	5.24567	1.30078	-1.78307
H	3.33066	-0.255319	-1.09034
