18
  This energy is -1.2553 and Call times are: 93826
C	0.076794	-0.78518	0.81486
C	-0.170198	0.528308	1.08711
C	-0.193393	1.19206	-0.177407
C	0.0414715	0.225593	-1.11076
O	0.208817	-0.988043	-0.522461
H	0.180593	-1.66174	1.47526
H	-0.320933	0.984064	2.07891
H	-0.365688	2.26478	-0.360972
H	0.112996	0.272585	-2.20982
C	3.82688	-0.357264	0.325386
C	4.14448	0.416094	-0.77106
N	5.47947	0.63793	-0.842363
C	5.98814	0.00460223	0.205863
N	5.03213	-0.611004	0.941163
H	2.86072	-0.732484	0.698586
H	3.43427	0.817972	-1.51197
H	7.05395	-0.0406021	0.481974
H	5.18073	-1.17427	1.81403
