18
  This energy is -0.5679 and Call times are: 176776
C	1.10588	0.246486	-0.0517463
C	0.144664	1.10381	-0.500557
C	-1.10305	0.448511	-0.268357
C	-0.794145	-0.751412	0.301851
O	0.550417	-0.89153	0.441603
H	2.20498	0.328114	-0.027903
H	0.298794	2.09795	-0.950045
H	-2.10865	0.833546	-0.502015
H	-1.43111	-1.58157	0.648779
C	6.47549	-0.079433	-0.960468
C	5.40339	-0.882683	-0.634074
N	4.85388	-0.50819	0.546733
C	5.58231	0.523462	0.951341
N	6.57252	0.820899	0.0769209
H	7.15363	-0.0846177	-1.82859
H	5.01653	-1.72573	-1.22945
H	5.43403	1.09774	1.88002
H	7.27947	1.59069	0.171244
