18
  This energy is -0.7799 and Call times are: 141466
C	0.460014	0.88698	0.536707
C	1.08925	-0.319936	0.448412
C	0.207991	-1.16721	-0.29026
C	-0.881967	-0.403255	-0.588149
O	-0.745028	0.854097	-0.0908304
H	0.76034	1.83498	1.01247
H	2.07507	-0.586799	0.861964
H	0.374698	-2.22161	-0.563298
H	-1.80782	-0.634151	-1.14017
C	5.25784	0.320006	-1.04268
C	4.74342	0.618839	0.201192
N	5.50865	0.0895169	1.18646
C	6.49404	-0.535317	0.556222
N	6.38751	-0.425498	-0.789208
H	4.91152	0.576544	-2.05648
H	3.83383	1.2069	0.405361
H	7.31984	-1.08895	1.03139
H	7.04097	-0.830998	-1.50323
