18
  This energy is -1.1179 and Call times are: 82468
C	-1.09452	0.0785833	0.286793
C	-0.089263	0.205288	1.19991
C	1.12665	0.047981	0.46716
C	0.757088	-0.160964	-0.829041
O	-0.595794	-0.145457	-0.957429
H	-2.19055	0.126959	0.394635
H	-0.19352	0.390904	2.28101
H	2.15258	0.0873812	0.867174
H	1.35289	-0.331466	-1.74074
C	5.31122	1.14784	-0.259682
C	4.58027	0.163741	-0.890871
N	4.80893	-1.04935	-0.331726
C	5.67843	-0.818693	0.642636
N	6.01249	0.490866	0.726624
H	5.37971	2.23297	-0.436676
H	3.89199	0.307299	-1.7397
H	6.10328	-1.5726	1.32481
H	6.67875	0.923338	1.41242
