18
  This energy is -1.7909 and Call times are: 184152
C	-0.410251	0.560743	0.896472
C	-0.736522	-0.737574	0.635143
C	-0.0332839	-1.08478	-0.558599
C	0.660646	0.0320155	-0.92137
O	0.442115	1.04661	-0.0439608
H	-0.713894	1.24167	1.70851
H	-1.40532	-1.38575	1.22393
H	-0.048426	-2.05568	-1.07938
H	1.33549	0.229836	-1.77031
C	4.18138	0.212183	-1.14332
C	4.43502	1.06803	-0.0924439
N	4.1069	0.497755	1.09231
C	3.65144	-0.707297	0.777618
N	3.67616	-0.927394	-0.558248
H	4.32003	0.329514	-2.22985
H	4.84889	2.08679	-0.167884
H	3.28715	-1.46848	1.48622
H	3.36899	-1.7999	-1.05386
