18
  This energy is -1.395 and Call times are: 118140
C	0.433854	-0.713102	0.767891
C	-0.48343	0.242092	1.09434
C	-0.782777	0.928596	-0.121895
C	-0.0219939	0.332312	-1.0842
O	0.727207	-0.672349	-0.558493
H	0.947393	-1.47296	1.37957
H	-0.906793	0.443093	2.09156
H	-1.48438	1.7677	-0.255149
H	0.0750341	0.527659	-2.16479
C	4.43481	-0.719431	-0.869147
C	4.52875	0.656065	-0.851019
N	4.04787	1.16341	0.309958
C	3.65709	0.10668	1.00941
N	3.8694	-1.052	0.341595
H	4.72076	-1.46043	-1.63249
H	4.93489	1.29148	-1.65485
H	3.20891	0.124605	2.01591
H	3.64587	-2.01939	0.681392
