18
  This energy is -3.312 and Call times are: 125063
C	-0.123442	1.11083	0.192909
C	0.048446	0.208974	1.20161
C	0.164982	-1.06673	0.569866
C	0.0540202	-0.831828	-0.769119
O	-0.122576	0.492628	-1.01739
H	-0.255974	2.20515	0.205311
H	0.0890959	0.420816	2.28215
H	0.313951	-2.04066	1.0632
H	0.0836366	-1.51253	-1.63573
C	4.00018	-0.0644501	-1.13624
C	5.27425	-0.120914	-0.612124
N	5.252	-0.015548	0.738769
C	3.969	0.10582	1.05152
N	3.174	0.0820448	-0.0443831
H	3.63514	-0.116416	-2.17431
H	6.20914	-0.235791	-1.18452
H	3.55653	0.215093	2.06747
H	2.12762	0.160297	-0.0594456
