18
  This energy is -0.982 and Call times are: 36058
C	-0.358032	-0.58881	0.900842
C	-1.1641	-0.326535	-0.167727
C	-0.366862	0.425621	-1.08358
C	0.85601	0.55658	-0.493828
O	0.879262	-0.0569074	0.71865
H	-0.543556	-1.13598	1.83969
H	-2.21471	-0.632079	-0.297951
H	-0.676443	0.819201	-2.06508
H	1.77977	1.05597	-0.829297
C	4.50923	0.32917	-1.09188
C	5.01735	1.13251	-0.0930758
N	5.23835	0.422659	1.03997
C	4.86873	-0.816339	0.745197
N	4.42172	-0.924249	-0.52843
H	4.21357	0.553264	-2.12913
H	5.22846	2.21159	-0.169703
H	4.90462	-1.683	1.42479
H	4.07461	-1.79654	-0.997347
