18
  This energy is -0.8275 and Call times are: 137170
C	-1.00823	0.498438	0.146381
C	-0.868033	-0.685421	-0.516337
C	0.528637	-0.983558	-0.492996
C	1.11863	0.0444324	0.181926
O	0.194922	0.958527	0.57968
H	-1.89807	1.10824	0.373493
H	-1.6679	-1.28827	-0.975559
H	1.02697	-1.86352	-0.930522
H	2.17212	0.239411	0.441515
C	5.0078	0.0103262	0.951756
C	5.92879	0.969777	0.587936
N	6.55113	0.635991	-0.568694
C	6.01824	-0.526111	-0.921075
N	5.08264	-0.94557	-0.0365998
H	4.32713	-0.0575999	1.81524
H	6.15538	1.89688	1.13929
H	6.27663	-1.11309	-1.81713
H	4.52123	-1.83038	-0.0930005
