18
  This energy is -0.9786 and Call times are: 74774
C	0.457075	-0.109966	-1.03218
C	0.260427	1.10589	-0.446176
C	-0.325895	0.835612	0.827909
C	-0.435781	-0.521548	0.908011
O	0.0375994	-1.11504	-0.219237
H	0.880764	-0.39003	-2.0106
H	0.503835	2.09397	-0.868727
H	-0.627469	1.57247	1.58961
H	-0.827901	-1.17768	1.70236
C	4.84015	-1.06443	0.201552
C	4.15508	0.128312	0.105671
N	5.00096	1.15983	-0.132986
C	6.20621	0.609114	-0.184964
N	6.16225	-0.730051	0.0107282
H	4.49201	-2.09319	0.385924
H	3.06561	0.263047	0.204422
H	7.15497	1.14037	-0.363436
H	6.97959	-1.38822	0.0160707
