18
  This energy is -1.0703 and Call times are: 89007
C	0.807155	-0.499305	-0.620964
C	0.801608	-0.544429	0.742233
C	-0.354073	0.187566	1.15297
C	-0.952725	0.615382	0.00450974
O	-0.257028	0.204954	-1.08845
H	1.50326	-0.922514	-1.36365
H	1.53751	-1.04315	1.39325
H	-0.692363	0.369229	2.18576
H	-1.86463	1.21067	-0.166676
C	6.07004	0.217505	-0.863033
C	4.71573	-0.00304385	-0.998552
N	4.13337	-0.221553	0.205449
C	5.12263	-0.136882	1.08455
N	6.31028	0.126442	0.489807
H	6.8537	0.425863	-1.60869
H	4.14839	-0.0084169	-1.94351
H	5.03277	-0.259326	2.17596
H	7.23746	0.239662	0.968112
