18
  This energy is -0.9141 and Call times are: 24125
C	-0.699765	0.398352	-0.798778
C	-0.86312	-0.831373	-0.231799
C	0.197995	-0.969821	0.714237
C	0.91611	0.187523	0.641855
O	0.381994	1.03446	-0.277073
H	-1.27762	0.928939	-1.57325
H	-1.65174	-1.56717	-0.457155
H	0.395679	-1.8343	1.36821
H	1.81469	0.525474	1.1837
C	5.21462	-1.04554	-0.439257
C	4.80186	-0.779591	0.849169
N	4.51704	0.535601	1.00935
C	4.75222	1.08348	-0.175192
N	5.17486	0.171397	-1.08243
H	5.52353	-1.98339	-0.927677
H	4.70447	-1.51313	1.66604
H	4.63126	2.14795	-0.433047
H	5.42466	0.356082	-2.0848
