18
  This energy is -1.2597 and Call times are: 204101
C	-0.215716	-0.225805	1.09036
C	0.580047	-1.02438	0.322622
C	0.609314	-0.419419	-0.970934
C	-0.171148	0.69543	-0.879481
O	-0.683073	0.829201	0.372338
H	-0.522833	-0.298574	2.14659
H	1.09479	-1.9469	0.635801
H	1.15126	-0.779641	-1.86011
H	-0.437543	1.4644	-1.6231
C	5.18689	-0.61179	-0.879629
C	4.07481	0.200059	-0.95268
N	3.79187	0.750818	0.252774
C	4.72487	0.282426	1.07055
N	5.58972	-0.543524	0.435383
H	5.70291	-1.21321	-1.64484
H	3.47155	0.398266	-1.85359
H	4.8213	0.512088	2.14395
H	6.4107	-1.03774	0.863162
