18
  This energy is -0.6921 and Call times are: 39627
C	0.891397	-0.69275	-0.109129
C	-0.316346	-1.1241	0.355275
C	-1.16966	0.0212941	0.348315
C	-0.408041	1.05146	-0.119728
O	0.853444	0.633361	-0.404085
H	1.84333	-1.22371	-0.273923
H	-0.579896	-2.14631	0.671063
H	-2.22636	0.0637156	0.657634
H	-0.643416	2.1142	-0.294206
C	4.87192	-0.533491	0.489022
C	5.21301	0.798059	0.59752
N	6.34543	1.0704	-0.0952778
C	6.70549	-0.0878007	-0.631529
N	5.84911	-1.08577	-0.308649
H	4.031	-1.10798	0.908989
H	4.6623	1.56713	1.16328
H	7.58745	-0.261191	-1.26895
H	5.91665	-2.08908	-0.608775
