18
  This energy is -0.6904 and Call times are: 113305
C	0.367621	0.0971471	1.06856
C	1.19825	0.232506	-0.00480271
C	0.378614	0.0455281	-1.15951
C	-0.880529	-0.187583	-0.689841
O	-0.905625	-0.15968	0.668688
H	0.55766	0.160193	2.15261
H	2.27966	0.442912	0.0146248
H	0.698178	0.0821401	-2.21338
H	-1.83093	-0.384698	-1.21246
C	5.41431	-0.839051	-0.667225
C	5.00764	-0.441902	0.588974
N	5.79539	0.552283	1.066
C	6.68736	0.771068	0.109377
N	6.49981	-0.0426999	-0.956547
H	5.02118	-1.60642	-1.35289
H	4.15994	-0.85491	1.15966
H	7.49955	1.51523	0.137675
H	7.07223	-0.0631076	-1.83585
