18
  This energy is -1.0898 and Call times are: 158443
C	-1.03481	-0.430596	0.173642
C	-0.327175	-0.667644	-0.968037
C	0.907872	0.0333664	-0.815195
C	0.845928	0.636908	0.406392
O	-0.333506	0.364278	1.02415
H	-2.03404	-0.765365	0.497247
H	-0.643198	-1.2752	-1.83123
H	1.73982	0.0773958	-1.53632
H	1.56514	1.27753	0.942663
C	5.78415	-0.324184	0.901074
C	5.1934	0.907215	0.711841
N	4.47175	0.931905	-0.434952
C	4.61428	-0.279571	-0.955179
N	5.39669	-1.07406	-0.186929
H	6.43127	-0.707156	1.70613
H	5.27495	1.77829	1.38224
H	4.16744	-0.637952	-1.89652
H	5.65831	-2.07128	-0.38278
