18
  This energy is -1.2276 and Call times are: 200046
C	-0.186758	0.0697166	1.11654
C	0.128439	-1.10576	0.500685
C	0.285338	-0.79197	-0.883886
C	0.0521686	0.54756	-0.991896
O	-0.23764	1.0899	0.22008
H	-0.395675	0.308956	2.17218
H	0.239331	-2.09462	0.973931
H	0.542066	-1.48916	-1.69759
H	0.0615609	1.22341	-1.86275
C	4.60179	1.0732	0.440497
C	3.75502	-0.0135379	0.496298
N	4.30351	-1.09219	-0.113772
C	5.48605	-0.676191	-0.5464
N	5.71271	0.62243	-0.236885
H	4.49598	2.10115	0.822153
H	2.75814	-0.0386345	0.965828
H	6.22544	-1.28124	-1.09545
H	6.57116	1.17972	-0.468746
