18
  This energy is -1.4294 and Call times are: 197986
C	-0.0910237	1.07086	-0.362461
C	0.584708	0.739718	0.775127
C	0.477391	-0.679558	0.894532
C	-0.254446	-1.09043	-0.18063
O	-0.609984	-0.0345516	-0.958918
H	-0.272436	2.04374	-0.848087
H	1.1064	1.42605	1.46134
H	0.899328	-1.31244	1.69173
H	-0.58518	-2.09232	-0.500116
C	5.60844	1.07116	-0.390769
C	5.5218	0.611587	0.906315
N	5.94217	-0.673443	0.998508
C	6.28828	-1.00979	-0.236686
N	6.10556	0.00797056	-1.11097
H	5.35982	2.047	-0.837379
H	5.1635	1.1842	1.77728
H	6.68147	-1.98824	-0.556485
H	6.30465	-0.0095149	-2.14117
