18
  This energy is -1.2576 and Call times are: 206827
C	0.494489	0.38141	-0.946788
C	0.658428	-0.897266	-0.501272
C	-0.108483	-0.994183	0.6998
C	-0.67337	0.233824	0.882213
O	-0.315845	1.0863	-0.114018
H	0.895437	0.904865	-1.83024
H	1.25915	-1.69246	-0.971274
H	-0.2206	-1.87946	1.34618
H	-1.3395	0.622428	1.66993
C	5.2689	1.00945	0.382407
C	3.97255	0.577219	0.566242
N	3.7752	-0.634066	-0.00852196
C	4.94468	-0.952074	-0.546877
N	5.87794	0.00666082	-0.338477
H	5.78395	1.929	0.702871
H	3.17611	1.11767	1.1033
H	5.17258	-1.87467	-1.10465
H	6.87543	-0.0106133	-0.664024
