18
  This energy is -0.5402 and Call times are: 108068
C	1.10141	0.152144	0.223931
C	0.628658	-0.97231	-0.386382
C	-0.784589	-0.794698	-0.492711
C	-1.05069	0.422612	0.0620126
O	0.0895541	1.01483	0.50488
H	2.1222	0.454606	0.509853
H	1.21619	-1.83981	-0.727483
H	-1.51066	-1.49711	-0.932642
H	-1.99629	0.972204	0.19999
C	6.03702	0.771671	-0.811087
C	5.28671	-0.223619	-0.221521
N	6.02428	-0.927887	0.670956
C	7.22757	-0.371621	0.635195
N	7.2862	0.657387	-0.24304
H	5.77903	1.52796	-1.56938
H	4.2264	-0.446162	-0.424136
H	8.10203	-0.67851	1.23133
H	8.12368	1.2544	-0.451515
