18
  This energy is -0.992 and Call times are: 166697
C	0.315203	-0.918848	-0.585462
C	-0.949834	-0.412519	-0.646166
C	-0.956598	0.727073	0.214881
C	0.304904	0.816533	0.725747
O	1.0949	-0.180654	0.247695
H	0.779551	-1.7875	-1.08051
H	-1.79358	-0.802408	-1.23792
H	-1.80663	1.39643	0.423461
H	0.759841	1.53351	1.42876
C	4.32125	1.03055	-0.423795
C	5.22745	0.175638	-1.01461
N	5.43385	-0.923043	-0.248567
C	4.65863	-0.750376	0.813434
N	3.96755	0.412623	0.754868
H	3.91653	2.00251	-0.747887
H	5.73605	0.331898	-1.97988
H	4.55897	-1.44441	1.66351
H	3.29116	0.774631	1.47091
