18
  This energy is -0.8589 and Call times are: 108646
C	-0.731039	-0.256487	-0.82837
C	-0.204674	-1.20333	0.000368821
C	0.658507	-0.502173	0.896705
C	0.58342	0.811237	0.536578
O	-0.260645	0.979502	-0.515207
H	-1.44097	-0.333084	-1.66824
H	-0.404229	-2.28682	-0.0176967
H	1.26127	-0.933943	1.71178
H	1.07452	1.71023	0.943875
C	6.47286	0.34367	-0.340534
C	5.91221	-0.904954	-0.507132
N	4.65861	-0.950065	0.00566063
C	4.44237	0.26595	0.488544
N	5.50643	1.0829	0.304252
H	7.45829	0.745107	-0.625675
H	6.38979	-1.77408	-0.988151
H	3.52251	0.611842	0.986972
H	5.58102	2.08794	0.596806
