18
  This energy is -0.5706 and Call times are: 126622
C	-0.779754	0.723993	0.392707
C	-0.987781	-0.0430698	-0.715767
C	0.203781	-0.811417	-0.8888
C	1.03477	-0.446053	0.129211
O	0.450266	0.490748	0.921534
H	-1.4197	1.46455	0.899948
H	-1.88983	-0.0655684	-1.34814
H	0.409282	-1.54809	-1.68201
H	2.05276	-0.774575	0.395695
C	6.79198	0.764283	0.416808
C	5.46616	0.664717	0.782077
N	4.84483	-0.328302	0.100624
C	5.78164	-0.842821	-0.684414
N	6.97327	-0.218338	-0.530704
H	7.5926	1.44223	0.752872
H	4.94678	1.29161	1.52511
H	5.64903	-1.67778	-1.39117
H	7.86531	-0.440387	-1.03688
