18
  This energy is -1.7404 and Call times are: 162747
C	0.509606	-0.928596	-0.405477
C	-0.382055	-0.20458	-1.14108
C	-0.799067	0.872365	-0.300601
C	-0.125422	0.711385	0.874415
O	0.678341	-0.383521	0.827987
H	1.08449	-1.83883	-0.64261
H	-0.712937	-0.408439	-2.17213
H	-1.51756	1.66952	-0.550425
H	-0.130768	1.29961	1.80673
C	3.78297	0.46883	-1.05744
C	4.55743	-0.639355	-0.786751
N	4.59061	-0.899348	0.542841
C	3.83958	0.0439571	1.09489
N	3.32993	0.893367	0.171666
H	3.53058	0.968711	-2.00611
H	5.09286	-1.25596	-1.527
H	3.62957	0.159197	2.17046
H	2.70813	1.71819	0.35688
