18
  This energy is -0.8059 and Call times are: 144819
C	-1.12045	0.0886643	0.152093
C	-0.570587	-0.796241	-0.72823
C	0.842821	-0.611909	-0.636482
C	1.0319	0.369366	0.291808
O	-0.156349	0.808728	0.783781
H	-2.16939	0.29993	0.417297
H	-1.10653	-1.50745	-1.37711
H	1.62063	-1.15178	-1.20009
H	1.94957	0.837111	0.68467
C	6.13524	-1.028	0.522469
C	4.94905	-0.326838	0.572147
N	5.02871	0.819681	-0.145948
C	6.25964	0.829751	-0.639236
N	6.96648	-0.262833	-0.264771
H	6.43662	-1.98538	0.976475
H	4.03717	-0.627691	1.11327
H	6.69504	1.61292	-1.28057
H	7.95869	-0.484775	-0.524629
