18
  This energy is -0.5841 and Call times are: 60915
C	-0.741212	-0.554705	-0.655215
C	0.535108	-0.291276	-1.05769
C	1.14889	0.411561	0.0237049
C	0.193457	0.51558	0.99154
O	-0.967152	-0.069082	0.593837
H	-1.57423	-1.07267	-1.15825
H	0.997933	-0.564483	-2.01959
H	2.18222	0.791636	0.0669546
H	0.214451	0.975544	1.99316
C	5.53387	-0.838391	-0.308606
C	5.32523	0.180756	0.596354
N	6.4235	0.966656	0.708975
C	7.3101	0.437073	-0.122955
N	6.82147	-0.653206	-0.760237
H	4.87903	-1.65508	-0.651733
H	4.40192	0.363074	1.17003
H	8.33189	0.807765	-0.303969
H	7.32715	-1.24475	-1.46425
