18
  This energy is -0.9236 and Call times are: 83188
C	0.489226	0.970893	0.323149
C	1.02642	-0.249142	0.611777
C	0.13567	-1.21215	0.0467123
C	-0.867221	-0.495578	-0.537336
O	-0.667413	0.839247	-0.378183
H	0.828743	1.99317	0.557503
H	1.95663	-0.450733	1.16691
H	0.237928	-2.30884	0.0766201
H	-1.7671	-0.813223	-1.08921
C	4.77735	-0.715806	0.833116
C	5.10571	-1.05649	-0.461975
N	5.56372	0.0182363	-1.14878
C	5.51967	1.02183	-0.283057
N	5.05261	0.630214	0.92611
H	4.38052	-1.31594	1.66732
H	5.02034	-2.05851	-0.91311
H	5.81764	2.06384	-0.482231
H	4.92458	1.23644	1.77308
