18
  This energy is -0.6138 and Call times are: 202801
C	0.181992	0.694563	-0.877987
C	1.19226	0.0170073	-0.261011
C	0.575618	-0.740639	0.781029
C	-0.757029	-0.459187	0.70884
O	-1.01532	0.415595	-0.298657
H	0.184752	1.39613	-1.72831
H	2.26417	0.047665	-0.514289
H	1.07437	-1.41421	1.49632
H	-1.61226	-0.811814	1.30841
C	6.78111	-0.0761082	0.956758
C	5.51473	-0.598111	0.798875
N	5.02245	-0.321862	-0.433139
C	5.9798	0.368892	-1.03727
N	7.0608	0.543598	-0.240709
H	7.47977	-0.100943	1.80811
H	4.94743	-1.16911	1.55186
H	5.94135	0.770758	-2.06257
H	7.94376	1.0539	-0.488169
