18
  This energy is -1.3434 and Call times are: 173508
C	0.0755615	-1.12335	-0.13705
C	-0.562599	-0.31923	-1.03511
C	-0.446332	1.00883	-0.522428
C	0.252614	0.899039	0.643673
O	0.579449	-0.396053	0.894527
H	0.237928	-2.21355	-0.118202
H	-1.06483	-0.630102	-1.96529
H	-0.840493	1.93239	-0.976061
H	0.576755	1.65671	1.37587
C	4.32685	0.0290971	1.1158
C	3.8558	-0.783861	0.106657
N	4.51391	-0.551856	-1.05506
C	5.38989	0.401405	-0.767707
N	5.31643	0.785548	0.528683
H	4.03754	0.119828	2.17486
H	3.05288	-1.53365	0.195999
H	6.10892	0.854465	-1.46911
H	5.90178	1.51974	0.99728
