18
  This energy is -0.5585 and Call times are: 196307
C	-0.610437	-0.548413	-0.78295
C	-1.07927	0.554659	-0.131953
C	-0.0387412	0.952909	0.761808
C	0.974094	0.0580454	0.578076
O	0.642098	-0.865826	-0.361738
H	-1.06478	-1.18895	-1.5566
H	-2.05951	1.03928	-0.267526
H	-0.0518105	1.8077	1.45698
H	1.96755	-0.0283679	1.04801
C	5.8053	0.716079	-0.913463
C	5.03191	0.593507	0.221435
N	5.55122	-0.327117	1.06954
C	6.64262	-0.773975	0.463088
N	6.83926	-0.175835	-0.735725
H	5.69667	1.35362	-1.80525
H	4.10851	1.15286	0.443496
H	7.33394	-1.53872	0.852297
H	7.62892	-0.357001	-1.40272
