18
  This energy is -0.9166 and Call times are: 209648
C	-0.826579	0.275896	-0.725982
C	-0.838286	-0.88712	-0.0134997
C	0.351326	-0.873421	0.776913
C	0.984973	0.296757	0.477666
O	0.279671	1.01111	-0.438443
H	-1.53679	0.690833	-1.45993
H	-1.60748	-1.67557	-0.0417133
H	0.687873	-1.64913	1.48338
H	1.92999	0.730755	0.843497
C	5.24003	-1.17249	-0.093529
C	4.33887	-0.324176	-0.701312
N	4.5856	0.967292	-0.373069
C	5.63584	0.920344	0.435273
N	6.06757	-0.347461	0.634959
H	5.34742	-2.26835	-0.126752
H	3.51507	-0.620847	-1.37079
H	6.12895	1.78447	0.908931
H	6.87823	-0.645206	1.23113
