18
  This energy is -1.0534 and Call times are: 48625
C	0.438337	-0.703203	0.774446
C	0.815078	0.604182	0.678602
C	0.053792	1.15251	-0.398381
C	-0.720955	0.131802	-0.865594
O	-0.499009	-1.0089	-0.160936
H	0.75848	-1.50822	1.45614
H	1.55486	1.12972	1.30361
H	0.0859635	2.18772	-0.774424
H	-1.46007	0.0897357	-1.68241
C	5.63883	0.830132	0.636898
C	4.41075	0.929027	0.0178829
N	4.09674	-0.218584	-0.630888
C	5.12611	-1.02635	-0.415173
N	6.08205	-0.440272	0.343957
H	6.20969	1.54988	1.24486
H	3.74564	1.80788	0.027769
H	5.23126	-2.0573	-0.789768
H	6.98821	-0.871472	0.650895
