18
  This energy is -1.0788 and Call times are: 127556
C	-0.695599	0.0442483	-0.894755
C	-0.404597	-1.1235	-0.252844
C	0.490605	-0.775905	0.804467
C	0.667622	0.573574	0.715328
O	-0.0493966	1.09087	-0.316807
H	-1.33913	0.260372	-1.76332
H	-0.782431	-2.12882	-0.499181
H	0.944855	-1.45813	1.54089
H	1.26968	1.27335	1.3179
C	7.1095	-0.308374	-0.95839
C	5.74646	-0.120231	-0.869601
N	5.38257	0.231094	0.387643
C	6.51555	0.260791	1.0762
N	7.58523	-0.0570756	0.309171
H	7.75313	-0.593786	-1.80563
H	5.01909	-0.231693	-1.69019
H	6.61884	0.509017	2.14481
H	8.58626	-0.103288	0.620714
