18
  This energy is -1.7889 and Call times are: 176840
C	-0.833912	0.410917	0.649722
C	-0.209045	-0.770139	0.92362
C	0.767004	-0.94374	-0.104635
C	0.652424	0.146557	-0.916113
O	-0.320447	0.984314	-0.470359
H	-1.64747	0.944909	1.16762
H	-0.414801	-1.45081	1.76531
H	1.46848	-1.78577	-0.218698
H	1.19694	0.439001	-1.82893
C	4.3473	-1.0856	-0.286655
C	5.41786	-0.396539	-0.816035
N	5.53447	0.831356	-0.25462
C	4.54003	0.903774	0.619721
N	3.79553	-0.227145	0.637894
H	3.95224	-2.09251	-0.495462
H	6.10821	-0.763382	-1.59301
H	4.3114	1.76162	1.27246
H	2.95762	-0.414359	1.24131
