18
  This energy is -1.0325 and Call times are: 205800
C	-0.615604	-0.866902	0.394859
C	-0.833276	-0.316384	-0.83393
C	0.126255	0.733152	-0.967697
C	0.845578	0.73134	0.191158
O	0.406057	-0.239358	1.03471
H	-1.11269	-1.69755	0.922294
H	-1.59329	-0.619013	-1.57209
H	0.258114	1.40606	-1.83019
H	1.68359	1.36102	0.53247
C	4.48314	0.893238	-0.454643
C	4.25778	-0.452753	-0.651275
N	5.1612	-1.20331	0.0247489
C	5.94403	-0.326285	0.638434
N	5.57616	0.951188	0.380901
H	3.96049	1.78423	-0.837402
H	3.45951	-0.895752	-1.26882
H	6.80112	-0.565334	1.28843
H	6.03597	1.82022	0.747816
