18
  This energy is -1.1254 and Call times are: 45742
C	0.610284	0.901079	-0.319392
C	-0.34577	0.973074	0.650737
C	-0.884508	-0.344609	0.767319
C	-0.210111	-1.1055	-0.14186
O	0.706573	-0.36094	-0.814417
H	1.28171	1.66627	-0.742393
H	-0.641917	1.86464	1.22649
H	-1.68141	-0.677816	1.45144
H	-0.28829	-2.17374	-0.402648
C	3.97032	-0.497745	0.277658
C	5.06659	-0.349869	1.10074
N	6.08362	0.269156	0.453476
C	5.62006	0.504411	-0.766518
N	4.35023	0.0607319	-0.922324
H	2.97975	-0.945927	0.455013
H	5.14191	-0.678747	2.15004
H	6.16845	0.998429	-1.58471
H	3.76635	0.129136	-1.79161
