18
  This energy is -0.9222 and Call times are: 18320
C	0.588602	-0.469643	0.848165
C	1.18366	0.266188	-0.134094
C	0.130013	0.680737	-1.00478
C	-1.0159	0.161636	-0.477723
O	-0.754468	-0.543837	0.654078
H	1.0049	-0.986349	1.72849
H	2.25691	0.494176	-0.235364
H	0.223903	1.29404	-1.91535
H	-2.06565	0.221733	-0.808876
C	5.72059	0.365932	1.03648
C	5.32791	1.15637	-0.0228404
N	4.89411	0.401458	-1.06132
C	5.01721	-0.85253	-0.64782
N	5.51135	-0.926789	0.610711
H	6.12078	0.623286	2.03004
H	5.34983	2.25784	-0.0564152
H	4.76019	-1.75449	-1.22631
H	5.69927	-1.80231	1.15789
