18
  This energy is -0.6239 and Call times are: 204069
C	-1.05104	-0.373933	0.204664
C	-0.786773	0.591813	-0.721549
C	0.62762	0.788162	-0.689045
C	1.10281	-0.0749322	0.254161
O	0.091405	-0.792547	0.810132
H	-1.99666	-0.843246	0.522146
H	-1.51481	1.11358	-1.36328
H	1.21425	1.49244	-1.30056
H	2.12517	-0.271045	0.61687
C	5.16349	-0.622731	0.545479
C	5.46809	-0.645778	-0.799077
N	6.48973	0.19806	-1.08317
C	6.81767	0.742532	0.0807119
N	6.04705	0.280102	1.09357
H	4.40577	-1.16676	1.13151
H	4.969	-1.25616	-1.56926
H	7.61431	1.48526	0.247864
H	6.11053	0.556635	2.1039
