18
  This energy is -1.3971 and Call times are: 35576
C	0.447356	-0.285201	1.00246
C	1.04336	0.611555	0.165215
C	0.191955	0.704927	-0.977814
C	-0.849166	-0.143012	-0.738149
O	-0.709464	-0.756081	0.466691
H	0.741843	-0.667565	1.99359
H	1.9878	1.15298	0.335455
H	0.345028	1.33314	-1.87001
H	-1.73932	-0.395458	-1.33744
C	4.9856	-0.294447	-1.13625
C	5.76285	0.620136	-0.457605
N	5.38875	0.710537	0.841774
C	4.38324	-0.144712	0.968745
N	4.10206	-0.775532	-0.195984
H	4.99827	-0.625934	-2.18672
H	6.58686	1.21639	-0.88226
H	3.81732	-0.348066	1.89212
H	3.3536	-1.49418	-0.352868
