18
  This energy is -0.8106 and Call times are: 150781
C	0.177477	1.01802	0.467486
C	-0.911953	0.255182	0.770138
C	-0.783003	-0.936348	-0.00687408
C	0.373842	-0.796454	-0.715754
O	0.973447	0.391207	-0.438357
H	0.496422	2.01119	0.824031
H	-1.72483	0.506349	1.47031
H	-1.47602	-1.7927	-0.0289257
H	0.872208	-1.46117	-1.44035
C	4.48713	-0.38289	-0.00174257
C	5.16325	0.19065	1.05422
N	6.43208	0.513522	0.704459
C	6.54269	0.141698	-0.563664
N	5.39683	-0.40437	-1.03527
H	3.45735	-0.764542	-0.0879911
H	4.75826	0.377269	2.06219
H	7.4402	0.246219	-1.19435
H	5.23267	-0.773739	-2.00371
