18
  This energy is -0.7796 and Call times are: 59550
C	-0.926287	-0.579577	-0.304113
C	0.250636	-0.672752	-0.987154
C	1.16484	0.191284	-0.310554
C	0.465873	0.736184	0.72622
O	-0.812936	0.276517	0.7453
H	-1.90357	-1.06461	-0.461946
H	0.454555	-1.28819	-1.87808
H	2.21851	0.378961	-0.572585
H	0.760613	1.45338	1.50981
C	6.37987	0.621405	-0.732612
C	6.49671	0.54347	0.639036
N	5.54487	-0.264917	1.16537
C	4.84022	-0.686877	0.124197
N	5.30425	-0.180481	-1.04278
H	6.96647	1.17237	-1.48486
H	7.25077	1.05605	1.25832
H	3.9744	-1.36755	0.159856
H	4.9182	-0.36379	-2.00122
