18
  This energy is -1.1403 and Call times are: 59486
C	-1.10668	-0.113569	-0.220823
C	-0.157417	-0.167606	-1.19876
C	1.09565	0.0142987	-0.537807
C	0.8015	0.163436	0.785676
O	-0.538845	0.0880472	0.997343
H	-2.20465	-0.203158	-0.261959
H	-0.322987	-0.320248	-2.27736
H	2.09479	0.0307359	-1.00206
H	1.44705	0.32695	1.66419
C	6.11471	-0.949667	-0.557888
C	6.81883	0.188468	-0.226216
N	6.02721	1.0841	0.412279
C	4.83651	0.503805	0.476467
N	4.83772	-0.723931	-0.094719
H	6.42175	-1.87345	-1.07354
H	7.88387	0.379418	-0.436187
H	3.92918	0.933452	0.930754
H	4.02141	-1.37905	-0.170337
