18
  This energy is -1.1504 and Call times are: 69756
C	0.579263	-0.712682	-0.665538
C	0.86853	0.618342	-0.594304
C	-0.0640824	1.17195	0.335145
C	-0.840926	0.130353	0.749834
O	-0.46201	-1.0282	0.14884
H	1.03413	-1.52946	-1.24967
H	1.65932	1.15635	-1.14139
H	-0.140154	2.22453	0.651976
H	-1.6837	0.0838555	1.45894
C	5.47219	0.686418	0.880567
C	5.86935	-0.606972	0.614954
N	5.23717	-1.09737	-0.478835
C	4.45082	-0.111957	-0.890215
N	4.55646	0.985099	-0.103514
H	5.76658	1.39189	1.67377
H	6.60072	-1.19508	1.19295
H	3.77719	-0.140436	-1.76179
H	4.03931	1.89067	-0.220854
