18
  This energy is -1.1932 and Call times are: 7871
C	0.0800836	0.135907	1.12317
C	1.14194	0.321324	0.287433
C	0.653298	0.0611352	-1.02925
C	-0.664021	-0.26031	-0.881882
O	-1.03104	-0.219653	0.426039
H	-0.0128015	0.224709	2.21804
H	2.16652	0.612143	0.569822
H	1.2237	0.110111	-1.97071
H	-1.4368	-0.533534	-1.61905
C	4.63106	-0.393875	-0.799175
C	5.71566	0.426068	-1.02825
N	6.38648	0.681529	0.121199
C	5.72058	0.0225737	1.0598
N	4.65386	-0.64157	0.555194
H	3.86999	-0.804926	-1.48134
H	6.02617	0.837896	-2.00233
H	5.97076	-0.0076898	2.13252
H	3.97376	-1.23258	1.09318
