18
  This energy is -1.1392 and Call times are: 71172
C	-0.340707	-0.240552	-1.05473
C	-1.10023	0.492786	-0.19118
C	-0.344222	0.579647	1.01755
C	0.810544	-0.108279	0.785935
O	0.829576	-0.615919	-0.474601
H	-0.518402	-0.559545	-2.09488
H	-2.09324	0.928821	-0.385837
H	-0.634536	1.09642	1.9464
H	1.68475	-0.306415	1.42761
C	6.69205	-0.923776	0.538162
C	6.75645	-0.617528	-0.804674
N	6.07429	0.520729	-1.07952
C	5.58854	0.91911	0.0883698
N	5.93336	0.0815141	1.09491
H	7.11821	-1.75812	1.11765
H	7.28291	-1.19749	-1.58013
H	4.974	1.81691	0.263055
H	5.67246	0.17928	2.10666
