18
  This energy is -1.3388 and Call times are: 210328
C	-0.338116	-1.08204	-0.0355361
C	0.395378	-0.512801	-1.0347
C	0.622112	0.838701	-0.632017
C	0.00715642	0.976036	0.57767
O	-0.584364	-0.187171	0.957227
H	-0.741173	-2.10086	0.0861643
H	0.742	-0.996133	-1.96224
H	1.17948	1.61158	-1.18527
H	-0.0804224	1.8377	1.25966
C	5.06041	-0.753724	0.865551
C	3.89605	-0.0293971	0.721454
N	3.93464	0.741123	-0.392691
C	5.11843	0.495739	-0.937707
N	5.83466	-0.39897	-0.216522
H	5.3821	-1.47254	1.63584
H	3.02883	-0.0489693	1.40145
H	5.51129	0.943981	-1.86452
H	6.7965	-0.754653	-0.439232
