18
  This energy is -0.9506 and Call times are: 164902
C	-1.12654	-0.125415	-0.0397477
C	-0.42738	0.511484	-1.02255
C	0.942208	0.467162	-0.61959
C	0.959081	-0.19291	0.573889
O	-0.295675	-0.562056	0.943116
H	-2.20349	-0.330532	0.0758318
H	-0.835192	0.966824	-1.93932
H	1.80742	0.881305	-1.1618
H	1.78778	-0.459697	1.25015
C	6.47019	0.601046	-0.656235
C	5.09843	0.740342	-0.654586
N	4.52168	-0.113142	0.226005
C	5.5318	-0.779382	0.768586
N	6.72735	-0.385185	0.269726
H	7.25539	1.11674	-1.23162
H	4.51453	1.44139	-1.27301
H	5.45223	-1.56639	1.53574
H	7.6705	-0.759517	0.537333
