18
  This energy is -0.7511 and Call times are: 124000
C	1.08539	-0.0436063	0.326241
C	0.236367	-1.10135	0.470149
C	-1.02145	-0.666475	-0.0484072
C	-0.830024	0.618629	-0.463421
O	0.450887	1.0153	-0.242215
H	2.14973	0.0800731	0.585318
H	0.472178	-2.08878	0.898495
H	-1.95477	-1.24968	-0.102054
H	-1.5158	1.3474	-0.925862
C	5.7642	0.535167	-1.04757
C	4.88545	-0.415841	-0.573726
N	5.22653	-0.817316	0.674871
C	6.31275	-0.118031	0.974481
N	6.67693	0.711734	-0.0317264
H	5.80332	1.08059	-2.00388
H	4.01145	-0.819492	-1.11041
H	6.88119	-0.17462	1.91677
H	7.49812	1.36509	-0.0370132
