18
  This energy is -1.1178 and Call times are: 187430
C	0.361602	0.557054	-0.919421
C	0.757702	0.893944	0.341524
C	0.0996566	-0.0235791	1.21631
C	-0.640476	-0.840158	0.412705
O	-0.492398	-0.499868	-0.894693
H	0.612695	0.985531	-1.9036
H	1.44439	1.707	0.627002
H	0.174693	-0.0633543	2.31489
H	-1.30499	-1.68833	0.645697
C	5.34425	0.184197	-1.07415
C	4.28876	0.851564	-0.489598
N	4.0442	0.381712	0.757775
C	4.94455	-0.573507	0.946339
N	5.75183	-0.730906	-0.12935
H	5.81836	0.292118	-2.06264
H	3.69932	1.66367	-0.945545
H	5.05698	-1.189	1.8534
H	6.53837	-1.41895	-0.225344
