18
  This energy is -1.1223 and Call times are: 126718
C	-0.500402	-0.858274	-0.547143
C	-0.579647	0.43149	-0.983724
C	0.165931	1.20843	-0.0453234
C	0.634972	0.324856	0.881862
O	0.237605	-0.941838	0.591002
H	-0.919355	-1.79418	-0.951885
H	-1.10994	0.798907	-1.87697
H	0.328652	2.298	-0.0663354
H	1.25342	0.469986	1.78281
C	5.25194	0.870159	0.249999
C	4.43565	0.201387	1.13745
N	3.69819	-0.743997	0.505856
C	4.05562	-0.662027	-0.768566
N	4.98993	0.296322	-0.974031
H	5.97658	1.68659	0.397944
H	4.36562	0.384082	2.22214
H	3.66456	-1.27985	-1.59295
H	5.43074	0.553267	-1.89105
