18
  This energy is -1.4421 and Call times are: 104910
C	-0.315824	1.07562	0.172329
C	-0.667887	0.0663151	1.01952
C	-0.0909986	-1.12107	0.474142
C	0.562667	-0.732539	-0.658173
O	0.435843	0.605766	-0.857838
H	-0.534198	2.15599	0.191625
H	-1.27311	0.149598	1.9365
H	-0.16001	-2.14145	0.884204
H	1.14698	-1.3043	-1.39771
C	4.81083	-1.17661	-0.0239645
C	5.74405	-0.352381	0.568399
N	5.41834	0.952642	0.403058
C	4.28735	0.938072	-0.289245
N	3.87995	-0.322123	-0.571249
H	4.74545	-2.27413	-0.0924979
H	6.64655	-0.675973	1.11212
H	3.7155	1.82145	-0.616134
H	3.01901	-0.596069	-1.10509
