18
  This energy is -0.7742 and Call times are: 182543
C	-0.285333	1.09466	0.0818697
C	-1.21419	0.106731	-0.0650481
C	-0.477997	-1.11549	-0.130751
C	0.835753	-0.766542	-0.0181822
O	0.971858	0.579349	0.112451
H	-0.389517	2.18817	0.174786
H	-2.30805	0.226636	-0.121493
H	-0.887569	-2.13162	-0.248266
H	1.75591	-1.37363	-0.0166843
C	5.26299	-0.716812	-0.682271
C	4.80747	0.036664	0.378821
N	5.81468	0.747902	0.941108
C	6.89096	0.436842	0.231543
N	6.6103	-0.442831	-0.75891
H	4.74114	-1.40561	-1.36547
H	3.77009	0.0798361	0.748743
H	7.90955	0.824411	0.394359
H	7.28962	-0.840403	-1.45298
