18
  This energy is -1.8695 and Call times are: 36315
C	0.403517	-0.971204	0.424663
C	0.685177	-0.555711	-0.843567
C	0.00729976	0.690945	-1.0062
C	-0.62876	0.927215	0.177011
O	-0.397703	-0.0776677	1.06236
H	0.708161	-1.87111	0.983782
H	1.30783	-1.07502	-1.5897
H	-0.000125001	1.3304	-1.90349
H	-1.26732	1.76191	0.50985
C	3.36825	0.743836	0.374155
C	3.84608	-0.365557	1.03903
N	4.80356	-0.994404	0.314951
C	4.91928	-0.277855	-0.79491
N	4.07512	0.780841	-0.80701
H	2.60081	1.48488	0.648791
H	3.51712	-0.723494	2.02823
H	5.60655	-0.483793	-1.63126
H	3.97767	1.49399	-1.57067
