18
  This energy is -0.6674 and Call times are: 144787
C	-0.625329	0.543661	-0.774466
C	0.693567	0.82597	-0.571513
C	1.12616	-0.0531314	0.467796
C	0.0334258	-0.795042	0.808202
O	-1.0451	-0.443857	0.0595671
H	-1.36502	0.968921	-1.47251
H	1.30089	1.57785	-1.1006
H	2.13557	-0.118374	0.904737
H	-0.104357	-1.59297	1.55626
C	5.57323	-0.92556	0.368224
C	5.0967	0.185685	-0.294497
N	6.09717	1.05792	-0.567941
C	7.19021	0.489943	-0.0767245
N	6.92668	-0.707517	0.497929
H	5.06204	-1.82605	0.744176
H	4.04892	0.373702	-0.58024
H	8.2094	0.907485	-0.110643
H	7.62107	-1.34784	0.955162
