18
  This energy is -1.6487 and Call times are: 30689
C	-0.437789	-0.390566	-0.97067
C	0.436748	0.655428	-0.932498
C	0.756786	0.847383	0.446214
C	0.0495669	-0.0982547	1.12884
O	-0.68547	-0.863094	0.279283
H	-0.948201	-0.886437	-1.8126
H	0.818212	1.23381	-1.78927
H	1.43572	1.60418	0.870944
H	-0.0155452	-0.32704	2.20526
C	5.25587	0.975753	0.352146
C	5.64628	-0.326896	0.579799
N	4.76973	-1.2027	0.0310568
C	3.83906	-0.446258	-0.534869
N	4.08713	0.874547	-0.368954
H	5.71182	1.9356	0.642568
H	6.54474	-0.650495	1.13017
H	2.95446	-0.807864	-1.08347
H	3.50085	1.66996	-0.722308
