18
  This energy is -1.3029 and Call times are: 47140
C	0.32365	-0.12788	1.07949
C	1.07623	-0.574888	0.0334592
C	0.347131	-0.234131	-1.14655
C	-0.786628	0.39103	-0.717435
O	-0.817464	0.464636	0.639268
H	0.487712	-0.16989	2.16879
H	2.04737	-1.09264	0.0873999
H	0.64058	-0.435154	-2.18941
H	-1.63704	0.82315	-1.27
C	5.62065	-0.421001	-1.05121
C	6.40599	-0.330311	0.0784615
N	5.71359	0.204736	1.11326
C	4.50329	0.445061	0.627401
N	4.39693	0.0851035	-0.673639
H	5.83871	-0.797322	-2.06332
H	7.45982	-0.641359	0.165383
H	3.6574	0.883513	1.18098
H	3.54465	0.17452	-1.27934
