18
  This energy is -0.9477 and Call times are: 23708
C	-0.751237	0.685711	0.501842
C	-0.911861	0.236841	-0.776082
C	0.222115	-0.588608	-1.04599
C	0.975591	-0.571291	0.0908249
O	0.396135	0.202026	1.04645
H	-1.37385	1.34479	1.12892
H	-1.74528	0.464203	-1.46006
H	0.442723	-1.1285	-1.98084
H	1.9308	-1.06075	0.342353
C	6.31028	-0.599842	-0.0680081
C	5.61741	-0.0248337	-1.11226
N	4.49192	0.588855	-0.672745
C	4.48658	0.395298	0.639174
N	5.56202	-0.316105	1.05261
H	7.25146	-1.17179	-0.0438421
H	5.90946	-0.0417848	-2.17493
H	3.71919	0.752888	1.34449
H	5.78361	-0.59785	2.03891
