18
  This energy is -1.0813 and Call times are: 46073
C	-0.116384	-0.679692	0.900485
C	0.306781	-1.13951	-0.311896
C	0.324742	-0.00282855	-1.17662
C	-0.0890323	1.05126	-0.416316
O	-0.362696	0.65607	0.854881
H	-0.28114	-1.19507	1.86095
H	0.578972	-2.17525	-0.571258
H	0.613628	0.0179821	-2.23973
H	-0.228798	2.11748	-0.65902
C	5.89886	0.0191518	0.622102
C	5.6401	-0.732078	-0.504771
N	4.38519	-0.507303	-0.964335
C	3.86741	0.379997	-0.125751
N	4.74085	0.7291	0.848326
H	6.7952	0.0962119	1.25784
H	6.33641	-1.43224	-0.994435
H	2.85327	0.807712	-0.178722
H	4.5687	1.41072	1.62744
