18
  This energy is -0.6591 and Call times are: 149628
C	-0.491984	-0.222471	-0.997426
C	-0.568542	1.0024	-0.402285
C	0.164018	0.890308	0.818742
C	0.623564	-0.393173	0.861965
O	0.232326	-1.08702	-0.23918
H	-0.904096	-0.600819	-1.9473
H	-1.0887	1.8953	-0.784752
H	0.324771	1.679	1.57121
H	1.23074	-0.927494	1.61103
C	5.35353	0.509441	1.00276
C	4.56179	-0.177515	0.107
N	5.291	-0.632493	-0.94074
C	6.53041	-0.229326	-0.695904
N	6.62002	0.463315	0.464186
H	5.11334	1.01113	1.95363
H	3.47746	-0.353009	0.19795
H	7.41036	-0.41402	-1.33293
H	7.48876	0.884878	0.875078
