18
  This energy is -1.2961 and Call times are: 42660
C	0.834266	-0.767412	-0.0384558
C	-0.432157	-1.04335	-0.463196
C	-1.18288	0.154417	-0.258529
C	-0.308942	1.05656	0.273212
O	0.927548	0.510531	0.414501
H	1.74593	-1.38638	-0.00683427
H	-0.800704	-1.99489	-0.878924
H	-2.24922	0.316186	-0.48402
H	-0.441833	2.10416	0.589608
C	5.17929	-0.924125	0.442163
C	4.96878	-0.639889	-0.890518
N	4.26115	0.506177	-1.03985
C	4.03353	0.931312	0.195494
N	4.567	0.103253	1.12464
H	5.70398	-1.75701	0.936681
H	5.31482	-1.24123	-1.74696
H	3.48159	1.84271	0.476464
H	4.52263	0.221364	2.16644
