18
  This energy is -1.2335 and Call times are: 61140
C	0.123887	-0.993302	-0.533296
C	0.0500955	-0.897904	0.825317
C	-0.101609	0.493123	1.11193
C	-0.107131	1.12497	-0.0968346
O	0.029585	0.232474	-1.1126
H	0.241848	-1.86345	-1.19977
H	0.0977167	-1.72419	1.55269
H	-0.194996	0.959782	2.10571
H	-0.200251	2.1903	-0.364508
C	4.05313	1.1246	-0.0068877
C	4.5938	0.431896	1.05565
N	4.87927	-0.847153	0.710601
C	4.51707	-0.947553	-0.561151
N	4.01298	0.214595	-1.03959
H	3.70569	2.16599	-0.0981735
H	4.78303	0.832102	2.06504
H	4.59912	-1.84886	-1.18975
H	3.659	0.38916	-2.01195
