18
  This energy is -1.3016 and Call times are: 79771
C	0.978059	-0.219129	0.530834
C	0.8714	-0.208493	-0.828903
C	-0.493801	0.10204	-1.11159
C	-1.10088	0.253754	0.100353
O	-0.216863	0.0611382	1.11446
H	1.83679	-0.409501	1.19536
H	1.67361	-0.400102	-1.55954
H	-0.960533	0.199069	-2.10499
H	-2.14169	0.495458	0.371541
C	4.82889	0.0947892	-1.17092
C	4.4682	-0.993813	-0.40542
N	4.68395	-0.758104	0.911549
C	5.17661	0.472048	0.962865
N	5.28327	1.02882	-0.26686
H	4.7955	0.26522	-2.25875
H	4.05616	-1.94508	-0.779788
H	5.47597	1.01338	1.87477
H	5.64347	1.98906	-0.489239
