18
  This energy is -2.5218 and Call times are: 52942
C	0.447812	-0.348768	0.98195
C	0.0702995	0.944623	0.769827
C	-0.439071	0.989546	-0.56383
C	-0.327862	-0.28036	-1.04895
O	0.211792	-1.11083	-0.118308
H	0.891093	-0.84635	1.86011
H	0.14321	1.78296	1.48115
H	-0.839616	1.86963	-1.09213
H	-0.59332	-0.715437	-2.02645
C	3.98689	-0.184928	-1.04289
C	5.31297	-0.389306	-0.725257
N	5.55976	-0.0728515	0.56914
C	4.39123	0.326329	1.05268
N	3.41117	0.276977	0.119596
H	3.43072	-0.330636	-1.98256
H	6.09608	-0.759434	-1.40687
H	4.19725	0.665254	2.08308
H	2.40453	0.540393	0.255762
