18
  This energy is -1.5425 and Call times are: 12136
C	-0.191352	0.401038	-1.04353
C	-1.05424	0.615136	-0.00913706
C	-0.476053	-0.0354029	1.12339
C	0.68911	-0.589608	0.681095
O	0.878875	-0.332952	-0.639938
H	-0.224641	0.713844	-2.10008
H	-2.00274	1.175	-0.0404945
H	-0.88714	-0.0802061	2.14471
H	1.46031	-1.18196	1.20035
C	3.76581	0.726915	-0.563611
C	4.58859	-0.222424	-1.13188
N	5.30005	-0.881919	-0.185625
C	4.92009	-0.343759	0.965302
N	3.99636	0.630811	0.790567
H	3.05622	1.44029	-1.01207
H	4.68161	-0.443317	-2.20771
H	5.28647	-0.625795	1.96553
H	3.5423	1.204	1.54326
