18
  This energy is -0.6727 and Call times are: 27707
C	1.00888	-0.0807343	0.511904
C	0.160354	-1.14257	0.398385
C	-0.987906	-0.653003	-0.295835
C	-0.7397	0.664781	-0.545261
O	0.475279	1.03123	-0.058897
H	2.00725	0.0115871	0.970149
H	0.326383	-2.16773	0.766578
H	-1.88918	-1.22312	-0.572915
H	-1.33902	1.43829	-1.05296
C	4.95374	0.0131412	1.04236
C	5.27488	-1.09704	0.290358
N	5.90127	-0.744504	-0.858495
C	5.96847	0.579345	-0.819355
N	5.4108	1.08375	0.306777
H	4.44913	0.113732	2.01642
H	5.06583	-2.14608	0.556169
H	6.41546	1.22918	-1.58887
H	5.34008	2.09727	0.569492
