18
  This energy is -0.99 and Call times are: 156272
C	0.230367	0.269857	-1.07727
C	-1.04558	0.178485	-0.603988
C	-0.926827	-0.176385	0.774447
C	0.411198	-0.27054	1.02182
O	1.13279	-0.00120569	-0.0978975
H	0.623301	0.516234	-2.07735
H	-1.97696	0.344341	-1.16889
H	-1.74783	-0.340377	1.49079
H	0.96936	-0.517929	1.9397
C	4.76027	-0.0759488	0.98492
C	6.11107	-0.319925	0.854699
N	6.51964	-0.136595	-0.424352
C	5.42646	0.219759	-1.08511
N	4.33927	0.270765	-0.279493
H	4.09111	-0.12295	1.85874
H	6.79817	-0.62495	1.66074
H	5.36589	0.454848	-2.15995
H	3.36187	0.525832	-0.56389
