18
  This energy is -1.1135 and Call times are: 47236
C	-0.268027	0.281015	1.06564
C	0.151508	-0.971019	0.723917
C	0.388236	-0.933326	-0.684152
C	0.0924639	0.338413	-1.07858
O	-0.309985	1.0937	-0.022838
H	-0.562851	0.713931	2.03565
H	0.281258	-1.8345	1.39598
H	0.738021	-1.76177	-1.32088
H	0.127023	0.823775	-2.06776
C	4.14189	0.0647509	0.897871
C	4.01131	-0.70015	-0.241875
N	5.07278	-0.532043	-1.06743
C	5.85888	0.333854	-0.442208
N	5.34158	0.723658	0.746928
H	3.48782	0.18288	1.77638
H	3.17021	-1.37031	-0.483302
H	6.82451	0.716385	-0.810261
H	5.77232	1.39912	1.42477
