18
  This energy is -0.8655 and Call times are: 52227
C	-0.863925	-0.545761	0.492117
C	-0.596901	-0.652721	-0.841161
C	0.548157	0.167668	-1.07764
C	0.87978	0.703535	0.132011
O	0.0279946	0.278575	1.102
H	-1.64879	-0.99956	1.11926
H	-1.15072	-1.24947	-1.58364
H	1.05866	0.333468	-2.03992
H	1.68815	1.39123	0.430119
C	6.03562	-0.913353	-0.0987218
C	5.83445	-0.12979	1.01784
N	4.9138	0.835316	0.778087
C	4.54522	0.651179	-0.482415
N	5.19319	-0.391081	-1.05462
H	6.69659	-1.77685	-0.274843
H	6.33712	-0.243542	1.99213
H	3.8047	1.25078	-1.03589
H	5.07614	-0.735667	-2.0389
