18
  This energy is -0.5388 and Call times are: 136732
C	0.992645	-0.531576	-0.135955
C	0.586401	-0.0400908	1.06977
C	-0.694263	0.549296	0.840334
C	-0.95756	0.365947	-0.485347
O	0.061947	-0.292447	-1.09701
H	1.90961	-1.06438	-0.436863
H	1.13367	-0.0878031	2.02493
H	-1.33736	1.04941	1.58222
H	-1.82251	0.653213	-1.1055
C	6.76097	0.973219	-0.03258
C	7.14813	-0.302218	-0.385437
N	6.13154	-1.1837	-0.224034
C	5.11757	-0.457864	0.227237
N	5.44686	0.848897	0.359653
H	7.3093	1.92866	-0.0328287
H	8.14278	-0.602193	-0.75359
H	4.1119	-0.832809	0.476802
H	4.82046	1.62037	0.696864
