18
  This energy is -0.9987 and Call times are: 88367
C	0.198738	0.165652	1.10429
C	-1.04219	-0.130522	0.621847
C	-0.890404	-0.263845	-0.79212
C	0.429878	-0.0373754	-1.04891
O	1.10993	0.226492	0.0977912
H	0.55909	0.353487	2.12904
H	-1.97124	-0.243748	1.20334
H	-1.67837	-0.500994	-1.5249
H	1.00142	-0.0350465	-1.99155
C	4.23661	-0.601423	-0.663793
C	5.29013	-1.11834	0.0601104
N	5.96386	-0.138437	0.71002
C	5.33071	0.982128	0.390518
N	4.28206	0.755822	-0.43574
H	3.48291	-1.08715	-1.30375
H	5.57617	-2.1808	0.1251
H	5.59302	1.99584	0.733747
H	3.62821	1.47689	-0.827915
