18
  This energy is -0.8968 and Call times are: 133889
C	0.499522	0.983064	-0.265448
C	-0.784587	0.915661	0.189409
C	-1.04899	-0.470537	0.410004
C	0.0968865	-1.12785	0.0704762
O	1.05306	-0.255644	-0.344254
H	1.12554	1.84012	-0.563434
H	-1.47623	1.75763	0.353163
H	-1.9864	-0.917031	0.778798
H	0.355018	-2.19955	0.079425
C	4.8304	0.642723	0.804712
C	4.4548	0.435218	-0.505635
N	5.34485	-0.358589	-1.14921
C	6.2691	-0.64246	-0.241579
N	6.00402	-0.0621771	0.952822
H	4.36124	1.22277	1.61524
H	3.55753	0.844057	-0.998191
H	7.16089	-1.27045	-0.398364
H	6.58233	-0.135309	1.82544
