18
  This energy is -1.3692 and Call times are: 35099
C	0.323263	1.07586	0.156318
C	-0.982496	0.723973	-0.0212979
C	-0.986484	-0.695169	-0.182969
C	0.317189	-1.08523	-0.089876
O	1.13082	-0.0165427	0.117315
H	0.800759	2.05621	0.318042
H	-1.85532	1.39631	-0.0369035
H	-1.86301	-1.34191	-0.348847
H	0.789137	-2.07947	-0.153102
C	4.05051	1.03847	-0.429575
C	4.02333	-0.177303	-1.07943
N	4.50166	-1.16629	-0.28594
C	4.82436	-0.566337	0.851842
N	4.57118	0.76338	0.815182
H	3.74634	2.04632	-0.753998
H	3.66714	-0.358583	-2.10662
H	5.24973	-1.05341	1.74406
H	4.73945	1.45333	1.58778
