18
  This energy is -1.2147 and Call times are: 157643
C	-0.677785	0.806242	0.420693
C	-0.758303	-0.496159	0.817735
C	0.242129	-1.19403	0.0746088
C	0.845681	-0.256475	-0.710946
O	0.296449	0.970706	-0.512491
H	-1.24934	1.69925	0.722542
H	-1.45255	-0.922653	1.5595
H	0.477776	-2.26918	0.125646
H	1.66613	-0.334475	-1.44308
C	4.127	0.335828	0.570594
C	4.46631	0.632855	-0.732399
N	5.65964	0.0828908	-1.06408
C	6.05912	-0.552901	0.0289969
N	5.16943	-0.430268	1.04241
H	3.24685	0.60638	1.17531
H	3.87144	1.23413	-1.43912
H	6.99473	-1.12397	0.141846
H	5.25704	-0.8406	2.00429
