18
  This energy is -1.2209 and Call times are: 100858
C	-0.765761	-0.700563	0.457408
C	-0.407085	-0.76815	-0.856805
C	0.564923	0.260398	-1.05021
C	0.714421	0.86572	0.162888
O	-0.0906494	0.291612	1.09524
H	-1.48004	-1.29371	1.05174
H	-0.788707	-1.47172	-1.61407
H	1.08678	0.512856	-1.98724
H	1.35259	1.7037	0.488119
C	3.95845	0.0579916	0.82068
C	4.54916	1.1173	0.164889
N	5.48216	0.68622	-0.718387
C	5.47031	-0.6355	-0.610965
N	4.56844	-1.06325	0.304046
H	3.17336	0.0238364	1.59269
H	4.31885	2.18492	0.313248
H	6.10142	-1.33811	-1.17865
H	4.3714	-2.05927	0.569368
