18
  This energy is -0.556 and Call times are: 212426
C	0.476538	0.897533	-0.503733
C	1.02066	-0.351444	-0.569756
C	0.145669	-1.19905	0.175947
C	-0.855911	-0.393204	0.631828
O	-0.669847	0.890477	0.226172
H	0.804069	1.86103	-0.927572
H	1.94543	-0.646293	-1.09126
H	0.257135	-2.28174	0.347569
H	-1.74585	-0.609056	1.24556
C	7.26652	-0.135516	0.0772581
C	6.41887	0.317935	1.0657
N	5.1352	0.348696	0.632378
C	5.18631	-0.0840264	-0.620125
N	6.44927	-0.388839	-1.00169
H	8.35708	-0.290688	0.0656775
H	6.71053	0.623451	2.08376
H	4.32877	-0.197107	-1.30283
H	6.74885	-0.749439	-1.94056
