18
  This energy is -1.674 and Call times are: 31183
C	0.0614981	-0.757417	0.841985
C	-0.812113	-0.889671	-0.197095
C	-0.592795	0.243182	-1.03892
C	0.395477	0.967701	-0.439947
O	0.806866	0.371292	0.709865
H	0.247642	-1.38967	1.72564
H	-1.53814	-1.70335	-0.35493
H	-1.11497	0.482483	-1.97922
H	0.886781	1.9117	-0.727599
C	3.75026	-0.767538	0.770527
C	4.71871	0.182214	1.01795
N	4.99967	0.896116	-0.0991554
C	4.20852	0.391171	-1.03603
N	3.43583	-0.614419	-0.561342
H	3.27832	-1.51655	1.42611
H	5.21975	0.365122	1.9825
H	4.15466	0.720509	-2.08621
H	2.73143	-1.17133	-1.10441
