18
  This energy is -1.4977 and Call times are: 108902
C	0.764955	-0.792821	0.269592
C	-0.112047	-0.945469	-0.76382
C	-0.900443	0.245339	-0.786701
C	-0.435622	1.02055	0.234748
O	0.581493	0.402099	0.890495
H	1.55756	-1.45247	0.659342
H	-0.195418	-1.80991	-1.44197
H	-1.71662	0.487746	-1.48612
H	-0.739998	2.0178	0.592661
C	5.01497	1.1537	0.216426
C	6.14731	0.464038	-0.162144
N	5.88391	-0.855096	-0.326513
C	4.59308	-0.983303	-0.0509611
N	4.02424	0.199576	0.281919
H	4.84958	2.22035	0.436517
H	7.14962	0.894647	-0.319622
H	4.01412	-1.9205	-0.0774574
H	3.01985	0.359414	0.540612
