18
  This energy is -1.439 and Call times are: 196403
C	-0.495115	-0.128347	1.01232
C	0.414219	-1.02084	0.525548
C	0.804225	-0.522596	-0.754986
C	0.0987906	0.630381	-0.937689
O	-0.699776	0.886425	0.131771
H	-1.06021	-0.102851	1.95851
H	0.774229	-1.93803	1.01875
H	1.52674	-0.976675	-1.45203
H	0.0763505	1.34913	-1.77324
C	5.03968	0.987537	-0.584892
C	6.2384	0.676338	0.0212237
N	6.18823	-0.545882	0.604466
C	4.96305	-0.991221	0.361104
N	4.2316	-0.103021	-0.352805
H	4.71532	1.87817	-1.14623
H	7.13857	1.31181	0.0481389
H	4.54949	-1.96069	0.682555
H	3.23818	-0.222391	-0.669232
