18
  This energy is -1.1718 and Call times are: 205286
C	0.0573064	-0.717571	0.876476
C	-0.834988	-0.878861	-0.142431
C	-0.603081	0.207065	-1.04082
C	0.410455	0.936086	-0.491598
O	0.825911	0.385826	0.679564
H	0.242688	-1.31108	1.78677
H	-1.58159	-1.68197	-0.250539
H	-1.13413	0.413315	-1.98397
H	0.918512	1.85354	-0.831325
C	6.51422	1.13754	0.289356
C	7.64539	0.475701	-0.139074
N	7.38339	-0.831018	-0.384742
C	6.09458	-0.979263	-0.109763
N	5.52569	0.178965	0.30068
H	6.34827	2.1878	0.577375
H	8.64588	0.917643	-0.275321
H	5.5172	-1.91422	-0.19175
H	4.52269	0.319898	0.575226
