18
  This energy is -0.9956 and Call times are: 117659
C	-0.175896	1.10261	-0.199275
C	-1.19969	0.224926	0.00537164
C	-0.587035	-1.0475	0.219137
C	0.757067	-0.835052	0.126249
O	1.02615	0.47242	-0.128939
H	-0.171342	2.18616	-0.402121
H	-2.27814	0.450873	0.00575686
H	-1.09602	-2.00427	0.418215
H	1.61408	-1.52196	0.220836
C	5.31353	0.674916	-0.816007
C	4.5915	1.1036	0.277636
N	4.14273	0.0544343	1.00864
C	4.58467	-1.02103	0.370917
N	5.29603	-0.699641	-0.735547
H	5.82162	1.23215	-1.61905
H	4.38634	2.15112	0.552327
H	4.4162	-2.0679	0.670771
H	5.7481	-1.36986	-1.40464
