18
  This energy is -0.6527 and Call times are: 144755
C	-0.456302	-0.571556	-0.866898
C	-1.10113	-0.414681	0.324724
C	-0.219708	0.349832	1.14858
C	0.885931	0.59265	0.387676
O	0.758582	0.0372444	-0.846147
H	-0.751052	-1.08779	-1.79527
H	-2.09752	-0.798794	0.596321
H	-0.396822	0.676327	2.18594
H	1.81759	1.14016	0.605618
C	6.39987	0.738835	-0.171607
C	5.14639	1.05827	0.30577
N	4.35608	-0.0402892	0.377013
C	5.11638	-1.03746	-0.0545255
N	6.35769	-0.618895	-0.397389
H	7.28925	1.36086	-0.360336
H	4.79811	2.06174	0.600064
H	4.81414	-2.09369	-0.139696
H	7.13909	-1.21507	-0.765146
