18
  This energy is -1.5854 and Call times are: 46863
C	-0.40505	-0.526615	0.919245
C	-0.540782	0.817021	0.727955
C	0.0879254	1.09933	-0.523103
C	0.552351	-0.0967169	-0.985877
O	0.260085	-1.1006	-0.117651
H	-0.733258	-1.18505	1.74022
H	-1.03414	1.53711	1.40038
H	0.178944	2.08182	-1.01353
H	1.09893	-0.36235	-1.90563
C	4.11182	-0.494245	-1.06222
C	3.7	0.792648	-0.787523
N	3.68718	1.02718	0.547147
C	4.08951	-0.109895	1.09835
N	4.35779	-1.05819	0.169712
H	4.24288	-1.03074	-2.01539
H	3.4119	1.55611	-1.52846
H	4.20538	-0.302465	2.1771
H	4.6899	-2.0366	0.35321
