18
  This energy is -0.6639 and Call times are: 64737
C	0.0858778	1.06476	-0.381211
C	1.17517	0.264877	-0.196761
C	0.668558	-0.980645	0.285049
C	-0.685587	-0.831937	0.352493
O	-1.05889	0.41108	-0.0507054
H	-0.00619817	2.10384	-0.737692
H	2.22964	0.525766	-0.381461
H	1.25215	-1.87746	0.548189
H	-1.48256	-1.52588	0.666403
C	5.36219	0.647252	-0.294405
C	5.37308	-0.481382	0.497561
N	6.62866	-0.974127	0.628791
C	7.3938	-0.154297	-0.0790721
N	6.67709	0.839654	-0.655253
H	4.53925	1.30518	-0.616019
H	4.49745	-0.948968	0.97662
H	8.485	-0.235652	-0.209004
H	7.05169	1.61007	-1.26138
