18
  This energy is -0.5531 and Call times are: 25425
C	-0.276105	0.309871	1.05553
C	0.211247	1.19418	0.138548
C	0.435688	0.438473	-1.05252
C	0.0656758	-0.840926	-0.758242
O	-0.371548	-0.937665	0.524914
H	-0.588225	0.441984	2.10452
H	0.394325	2.27066	0.286082
H	0.827383	0.81253	-2.01208
H	0.0658431	-1.76031	-1.36651
C	6.3865	-0.369716	-0.68009
C	5.32447	-1.12142	-0.223822
N	4.48827	-0.374343	0.53721
C	5.02949	0.836217	0.553006
N	6.17539	0.890352	-0.166428
H	7.2488	-0.633495	-1.31285
H	5.1466	-2.18943	-0.430121
H	4.62818	1.71939	1.07568
H	6.78656	1.73188	-0.306285
