18
  This energy is -1.1575 and Call times are: 121607
C	0.349559	0.960576	-0.49143
C	-0.0187404	0.903399	0.820614
C	-0.390439	-0.454146	1.06358
C	-0.216465	-1.1067	-0.121443
O	0.235	-0.258015	-1.08213
H	0.706803	1.79671	-1.11474
H	-0.0277639	1.73388	1.54471
H	-0.744953	-0.885489	2.0135
H	-0.376403	-2.15946	-0.406693
C	5.24011	0.257323	-1.06075
C	3.91483	0.298558	-0.682504
N	3.76579	-0.0607039	0.61566
C	4.99394	-0.323815	1.04114
N	5.91823	-0.146855	0.0675166
H	5.73223	0.47958	-2.02093
H	3.06352	0.5811	-1.32304
H	5.27288	-0.649726	2.05614
H	6.95408	-0.290228	0.155377
