18
  This energy is -0.9804 and Call times are: 65025
C	0.964719	-0.544899	-0.242495
C	0.925452	0.536343	0.588015
C	-0.444338	0.937238	0.643457
C	-1.12121	0.0655866	-0.158067
O	-0.276313	-0.846306	-0.707259
H	1.80169	-1.17908	-0.577975
H	1.77578	1.00463	1.1093
H	-0.867219	1.77816	1.21628
H	-2.19017	-0.0107922	-0.416405
C	7.75194	-0.473457	0.771699
C	6.38871	-0.672569	0.715864
N	5.83363	0.0295434	-0.301695
C	6.84863	0.661822	-0.874945
N	8.02652	0.391113	-0.264308
H	8.52045	-0.872508	1.45264
H	5.79574	-1.31026	1.39157
H	6.7853	1.33532	-1.74478
H	8.96931	0.76802	-0.529535
