18
  This energy is -0.9923 and Call times are: 10861
C	-0.481828	-0.547539	-0.868587
C	-0.270746	0.799924	-0.881309
C	0.345995	1.11089	0.36891
C	0.457351	-0.073994	1.03526
O	-0.0432166	-1.09742	0.294281
H	-0.929038	-1.22458	-1.61483
H	-0.523948	1.50424	-1.68997
H	0.66605	2.10425	0.722323
H	0.868276	-0.318353	2.02857
C	5.01286	1.04317	0.446097
C	4.50341	0.800371	-0.811936
N	4.25319	-0.519357	-0.99144
C	4.60608	-1.0931	0.15089
N	5.07045	-0.193129	1.04978
H	5.32799	1.97708	0.938074
H	4.3119	1.5538	-1.59329
H	4.54513	-2.16867	0.382526
H	5.40972	-0.39809	2.02145
