18
  This energy is -0.9362 and Call times are: 14095
C	-0.119863	0.627203	0.937363
C	-0.516313	1.06696	-0.291382
C	-0.204849	0.0126183	-1.20323
C	0.354436	-0.978359	-0.451209
O	0.414177	-0.620024	0.858386
H	-0.162677	1.10042	1.93209
H	-0.981423	2.03654	-0.531551
H	-0.380455	0.00219528	-2.29096
H	0.744994	-1.97215	-0.72523
C	4.01218	-0.419317	-0.648879
C	4.59964	0.823577	-0.754973
N	5.59585	0.97217	0.151666
C	5.6263	-0.17418	0.817682
N	4.69076	-1.046	0.372389
H	3.1868	-0.886604	-1.20917
H	4.32251	1.61576	-1.46947
H	6.31351	-0.428093	1.64078
H	4.51569	-2.01476	0.735865
