18
  This energy is -0.9196 and Call times are: 23226
C	0.494798	-0.852402	0.561237
C	0.0645086	0.281106	1.18605
C	-0.493671	1.10463	0.161173
C	-0.355204	0.401663	-0.999448
O	0.246476	-0.795853	-0.773735
H	0.986596	-1.75943	0.949427
H	0.133276	0.513957	2.26082
H	-0.943728	2.10293	0.283338
H	-0.640058	0.640486	-2.03727
C	4.26785	-0.378788	0.6105
C	5.48075	0.0316861	1.1219
N	6.32794	0.403423	0.131646
C	5.64321	0.224247	-0.989813
N	4.39547	-0.246086	-0.754157
H	3.35343	-0.743762	1.10463
H	5.75974	0.0662711	2.18765
H	6.00755	0.421675	-2.01085
H	3.66455	-0.467476	-1.47388
