18
  This energy is -1.0244 and Call times are: 66670
C	0.851945	-0.747107	0.0492067
C	-0.283951	-0.980818	-0.668772
C	-1.10598	0.172962	-0.486609
C	-0.399842	1.00988	0.326605
O	0.798263	0.463968	0.663558
H	1.75894	-1.35502	0.201039
H	-0.519361	-1.87591	-1.26668
H	-2.10545	0.350305	-0.9152
H	-0.636613	2.00734	0.731899
C	6.02773	-0.267028	-0.673132
C	5.56824	-0.971128	0.41969
N	4.47577	-0.377809	0.959126
C	4.25835	0.690309	0.203828
N	5.16719	0.801193	-0.793818
H	6.87783	-0.44461	-1.35087
H	6.00543	-1.89661	0.828583
H	3.44774	1.42476	0.336935
H	5.20845	1.55692	-1.52075
