18
  This energy is -0.6347 and Call times are: 116442
C	-1.13165	-0.00639531	-0.0756858
C	-0.433439	1.08988	0.337895
C	0.943812	0.713155	0.300861
C	0.96564	-0.58008	-0.132083
O	-0.293117	-1.03552	-0.36685
H	-2.21286	-0.179018	-0.203925
H	-0.846791	2.06592	0.638861
H	1.81061	1.33903	0.567403
H	1.80074	-1.27688	-0.311852
C	7.26703	-0.150387	0.653699
C	7.21212	0.271933	-0.657702
N	5.93197	0.333042	-1.09816
C	5.19552	-0.0499117	-0.0639435
N	5.95402	-0.352149	1.0163
H	8.11913	-0.316098	1.33194
H	8.07326	0.533636	-1.29394
H	4.09649	-0.126931	-0.0433321
H	5.60784	-0.678078	1.95181
