18
  This energy is -0.728 and Call times are: 118589
C	0.773144	-0.533488	0.635642
C	-0.230739	0.212645	1.17959
C	-0.986216	0.715135	0.0764675
C	-0.377303	0.231708	-1.0442
O	0.698921	-0.532843	-0.721378
H	1.59214	-1.10676	1.10025
H	-0.420238	0.391261	2.25023
H	-1.87793	1.36081	0.12177
H	-0.60948	0.357601	-2.11448
C	6.46435	-0.588418	0.329971
C	6.25802	0.0542987	-0.872314
N	5.03197	0.630071	-0.914481
C	4.47978	0.34563	0.257188
N	5.30368	-0.387256	1.0431
H	7.32625	-1.15578	0.71568
H	6.97186	0.112878	-1.71008
H	3.47461	0.649277	0.59135
H	5.09757	-0.735828	2.01123
