18
  This energy is -0.793 and Call times are: 179795
C	-0.256267	-0.0806433	1.10192
C	0.26209	1.05569	0.553813
C	0.447166	0.771352	-0.833636
C	0.0255676	-0.513641	-1.0109
O	-0.407339	-1.04931	0.160707
H	-0.556027	-0.323328	2.13463
H	0.491147	1.99946	1.07432
H	0.84825	1.45083	-1.60275
H	-0.0166769	-1.15196	-1.90868
C	5.33287	1.11792	0.361722
C	4.33609	0.383091	-0.244573
N	4.75859	-0.872941	-0.528101
C	6.01271	-0.917151	-0.0993294
N	6.40568	0.258684	0.445259
H	5.354	2.15683	0.727447
H	3.31963	0.736709	-0.482509
H	6.68855	-1.7854	-0.159446
H	7.34805	0.47465	0.853373
