18
  This energy is -1.8642 and Call times are: 209616
C	0.733547	0.248444	-0.828605
C	0.230164	-1.00669	-0.650765
C	-0.644704	-0.921191	0.47503
C	-0.598709	0.378638	0.885766
O	0.238078	1.10722	0.100928
H	1.44214	0.653777	-1.56945
H	0.452606	-1.90283	-1.25204
H	-1.23544	-1.73787	0.920173
H	-1.10741	0.90293	1.71135
C	4.72081	-1.10132	0.307005
C	5.98752	-0.591662	0.11501
N	5.94001	0.717158	-0.233193
C	4.64875	1.01831	-0.257122
N	3.8727	-0.0446341	0.0614208
H	4.37446	-2.10761	0.591525
H	6.93486	-1.14489	0.221496
H	4.21655	2.00205	-0.501437
H	2.82462	-0.0607447	0.111731
