18
  This energy is -1.3245 and Call times are: 49995
C	0.0560736	1.05297	-0.417753
C	-0.00599399	0.800732	0.921239
C	-0.0645675	-0.620659	1.04905
C	-0.0331222	-1.11154	-0.223124
O	0.0405251	-0.10342	-1.13157
H	0.113836	1.99841	-0.981708
H	-0.0101183	1.54131	1.73709
H	-0.123136	-1.20125	1.9837
H	-0.0568594	-2.14382	-0.609244
C	5.51761	0.112028	-0.351411
C	4.41505	-0.0958053	-1.15286
N	3.28205	-0.176927	-0.413774
C	3.68021	-0.0200166	0.841403
N	5.01959	0.157579	0.931587
H	6.58575	0.226904	-0.595153
H	4.41679	-0.188674	-2.25114
H	3.03267	-0.0266153	1.73296
H	5.57318	0.302385	1.81126
