18
  This energy is -0.8061 and Call times are: 206377
C	0.372593	0.808617	0.702648
C	1.20275	-0.129418	0.162916
C	0.376146	-0.958951	-0.65484
C	-0.88616	-0.454602	-0.542639
O	-0.906789	0.625072	0.282522
H	0.566988	1.64813	1.39016
H	2.28829	-0.227378	0.32444
H	0.693373	-1.82796	-1.25341
H	-1.8419	-0.769302	-0.992949
C	5.42462	-1.1561	-0.13331
C	4.83911	-0.141097	-0.860015
N	5.26983	1.07278	-0.438704
C	6.11931	0.811822	0.545628
N	6.24695	-0.51777	0.76808
H	5.31786	-2.25096	-0.191862
H	4.11361	-0.26291	-1.68078
H	6.67543	1.55688	1.13711
H	6.85624	-0.975219	1.48972
