18
  This energy is -1.1581 and Call times are: 155632
C	-1.12654	0.0939177	0.0921517
C	-0.319754	1.17053	-0.132297
C	1.01195	0.656855	-0.185454
C	0.901388	-0.688313	0.0112033
O	-0.39754	-1.0495	0.18249
H	-2.21989	0.010699	0.205743
H	-0.631167	2.22103	-0.248744
H	1.93834	1.2299	-0.35131
H	1.66096	-1.48626	0.0508318
C	4.57411	-0.127379	-0.828723
C	5.44532	0.931566	-0.684553
N	6.26376	0.749504	0.380118
C	5.90167	-0.417947	0.894485
N	4.88677	-0.986243	0.201223
H	3.78026	-0.323997	-1.56674
H	5.498	1.82369	-1.32968
H	6.34637	-0.903359	1.77814
H	4.42588	-1.9059	0.408762
