18
  This energy is -1.6462 and Call times are: 48815
C	-0.164788	-1.09218	-0.257643
C	0.424491	-0.218345	-1.1234
C	0.4534	1.04048	-0.449128
C	-0.120764	0.824767	0.769139
O	-0.50419	-0.472169	0.903132
H	-0.39656	-2.16617	-0.347596
H	0.801038	-0.438165	-2.13532
H	0.856817	1.99073	-0.834322
H	-0.312313	1.50232	1.61737
C	4.75023	-0.235758	-1.01329
C	4.69792	-1.03887	0.106268
N	3.97656	-0.454525	1.09353
C	3.58285	0.706689	0.588359
N	4.0238	0.885406	-0.679399
H	5.23675	-0.377986	-1.99135
H	5.16777	-2.02949	0.219347
H	2.97013	1.46387	1.10361
H	3.84616	1.71918	-1.29138
