18
  This energy is -1.2331 and Call times are: 17461
C	-1.13199	0.0626241	0.0328411
C	-0.474803	-0.995319	-0.523249
C	0.917376	-0.712729	-0.374602
C	0.988033	0.492954	0.259203
O	-0.254178	0.980966	0.515654
H	-2.20724	0.277837	0.145899
H	-0.925211	-1.88541	-0.991183
H	1.76099	-1.34016	-0.704368
H	1.84987	1.10136	0.57909
C	5.11486	-0.891114	-0.760142
C	4.57147	0.35001	-1.01604
N	4.59844	1.13269	0.0899473
C	5.15643	0.379974	1.0284
N	5.48562	-0.849183	0.565363
H	5.25913	-1.77183	-1.40594
H	4.16044	0.69475	-1.97888
H	5.34759	0.679374	2.07149
H	5.93724	-1.62283	1.11195
