18
  This energy is -0.9848 and Call times are: 112601
C	0.457908	-0.105121	-1.03231
C	1.03342	-0.644558	0.0804138
C	0.174099	-0.303905	1.16928
C	-0.85068	0.413628	0.625824
O	-0.693505	0.544721	-0.717725
H	0.764607	-0.113438	-2.09114
H	1.96921	-1.22421	0.129514
H	0.311147	-0.56692	2.23048
H	-1.73965	0.879295	1.08205
C	4.47685	0.0700698	0.838219
C	4.72821	0.99389	-0.154011
N	5.74965	0.591766	-0.948654
C	6.13052	-0.577076	-0.451291
N	5.39376	-0.935317	0.626868
H	3.73512	0.0573732	1.6526
H	4.19083	1.94337	-0.310755
H	6.94343	-1.21264	-0.83791
H	5.50063	-1.81193	1.19378
