18
  This energy is -0.5423 and Call times are: 39562
C	-0.719549	-0.876542	0.0180387
C	-1.14431	0.418408	0.0733372
C	0.0371972	1.21972	0.0280006
C	1.07966	0.343706	-0.0510008
O	0.635837	-0.94081	-0.0582005
H	-1.2746	-1.82897	0.0251469
H	-2.18522	0.773701	0.139425
H	0.0944888	2.31983	0.0519484
H	2.16856	0.506226	-0.106974
C	5.39719	-0.40062	-0.0916864
C	6.54585	-1.03467	-0.515595
N	7.64361	-0.28533	-0.251138
C	7.17773	0.809425	0.334606
N	5.82906	0.787705	0.453801
H	4.33832	-0.700929	-0.138047
H	6.60218	-2.01939	-1.00752
H	7.78033	1.65828	0.695932
H	5.22709	1.53392	0.880463
