18
  This energy is -0.7576 and Call times are: 158603
C	0.254459	-0.755666	0.806611
C	1.17381	-0.319013	-0.101409
C	0.485242	0.611067	-0.93863
C	-0.794101	0.660669	-0.468317
O	-0.952827	-0.167732	0.597315
H	0.333499	-1.47314	1.63982
H	2.23082	-0.621528	-0.174327
H	0.902227	1.17306	-1.78974
H	-1.67314	1.23731	-0.800018
C	5.04687	0.239034	0.872209
C	5.12573	-0.929056	0.143861
N	6.11068	-0.860523	-0.784411
C	6.64084	0.345497	-0.632515
N	6.03404	1.04716	0.353924
H	4.38035	0.542286	1.69521
H	4.48958	-1.82005	0.271531
H	7.47515	0.765613	-1.21704
H	6.27052	2.02119	0.664707
