18
  This energy is -1.1698 and Call times are: 55187
C	1.01735	0.213142	-0.453843
C	-0.0284663	-0.256026	-1.19312
C	-1.11942	-0.396566	-0.281978
C	-0.643973	-0.000873178	0.933648
O	0.659256	0.374797	0.847176
H	2.05309	0.468257	-0.732077
H	-0.0313707	-0.480611	-2.27184
H	-2.13637	-0.751782	-0.513806
H	-1.1262	0.0586935	1.92317
C	4.76332	0.745862	0.735362
C	5.95351	0.952069	0.070482
N	6.27726	-0.118173	-0.695205
C	5.29167	-0.985033	-0.506056
N	4.35423	-0.51071	0.348241
H	4.19738	1.38313	1.43332
H	6.58442	1.85391	0.129544
H	5.20671	-1.98164	-0.968425
H	3.48197	-1.00584	0.656893
