18
  This energy is -1.0476 and Call times are: 98310
C	0.534822	0.813176	0.582332
C	0.894549	-0.500008	0.663071
C	0.000871399	-1.20402	-0.200538
C	-0.826077	-0.258905	-0.73278
O	-0.514257	0.978658	-0.265642
H	0.940668	1.7138	1.07163
H	1.70765	-0.929796	1.2699
H	-0.0166925	-2.28819	-0.396427
H	-1.66369	-0.337845	-1.44511
C	5.37613	1.1018	-0.308044
C	4.49401	0.714786	0.678479
N	4.41738	-0.635573	0.763149
C	5.2488	-1.08458	-0.167309
N	5.85126	-0.0758882	-0.840489
H	5.68895	2.09867	-0.657222
H	3.91148	1.38573	1.33067
H	5.45415	-2.14237	-0.397853
H	6.54763	-0.172536	-1.61958
