18
  This energy is -1.5044 and Call times are: 65904
C	0.877627	0.156696	-0.701155
C	0.545417	1.05903	0.266218
C	-0.596347	0.516662	0.9313
C	-0.861061	-0.669221	0.311637
O	0.0292502	-0.904949	-0.687758
H	1.68423	0.15412	-1.45258
H	1.05342	2.01105	0.489092
H	-1.1496	0.964564	1.77236
H	-1.64311	-1.42644	0.485613
C	4.87044	0.218978	-1.09541
C	5.10246	0.987349	0.0257185
N	4.5277	0.437116	1.12271
C	3.94134	-0.6684	0.683804
N	4.1192	-0.84438	-0.646981
H	5.17656	0.349284	-2.14557
H	5.67429	1.92889	0.0627126
H	3.3687	-1.38512	1.29423
H	3.75433	-1.63939	-1.22672
