18
  This energy is -0.8492 and Call times are: 185402
C	-0.998045	-0.536348	0.0513538
C	0.0604443	-1.02893	-0.65387
C	1.11926	-0.0862956	-0.479277
C	0.614323	0.899097	0.317226
O	-0.677525	0.640494	0.650789
H	-2.01909	-0.923256	0.203092
H	0.0924192	-1.96242	-1.23839
H	2.13539	-0.143623	-0.901511
H	1.06651	1.82377	0.711893
C	7.33435	1.07474	-0.203362
C	6.68299	0.261041	-1.10601
N	6.31697	-0.910717	-0.531968
C	6.73965	-0.824271	0.722022
N	7.35944	0.353918	0.969655
H	7.76736	2.08214	-0.309207
H	6.47059	0.498457	-2.16117
H	6.62152	-1.59472	1.50092
H	7.77912	0.659979	1.88149
