18
  This energy is -0.9208 and Call times are: 200398
C	-0.323091	-0.673242	0.853674
C	-0.600966	-0.962412	-0.44999
C	-0.0397705	0.104952	-1.21544
C	0.531504	0.952148	-0.311958
O	0.367988	0.492456	0.956489
H	-0.559033	-1.20907	1.78773
H	-1.14641	-1.83937	-0.834079
H	-0.0635903	0.220099	-2.31101
H	1.07641	1.90145	-0.442945
C	4.16094	0.112643	-0.541072
C	5.40908	0.19129	-1.12168
N	6.38806	0.0138177	-0.201575
C	5.74969	-0.174214	0.945485
N	4.40511	-0.123736	0.793354
H	3.14997	0.205076	-0.968787
H	5.62075	0.37291	-2.18801
H	6.21806	-0.353191	1.92672
H	3.68569	-0.242113	1.54813
