18
  This energy is -0.9848 and Call times are: 68334
C	0.698138	-0.101096	0.888135
C	-0.0197164	-1.15308	0.399883
C	-0.768304	-0.637778	-0.702023
C	-0.441818	0.68361	-0.789858
O	0.452576	1.02852	0.173525
H	1.40892	-0.0278153	1.72758
H	-0.0218732	-2.18811	0.777773
H	-1.46627	-1.19384	-1.34835
H	-0.772618	1.47388	-1.48361
C	5.26663	0.334057	1.09654
C	4.17227	0.72613	0.355067
N	4.17916	0.146851	-0.870045
C	5.27364	-0.601743	-0.888525
N	5.96342	-0.522783	0.274044
H	5.58816	0.595432	2.11725
H	3.37784	1.41661	0.682134
H	5.61728	-1.22769	-1.72777
H	6.85847	-1.01962	0.504877
