18
  This energy is -1.9797 and Call times are: 30625
C	-0.500135	-1.01089	-0.119859
C	0.339761	-0.495119	-1.06269
C	0.76141	0.773158	-0.5589
C	0.141956	0.920452	0.647315
O	-0.632424	-0.159684	0.931311
H	-1.05897	-1.96027	-0.0793796
H	0.632971	-0.961033	-2.01718
H	1.44654	1.4861	-1.04512
H	0.169804	1.73576	1.38877
C	4.2552	-0.803547	0.568891
C	5.56666	-0.463062	0.824388
N	5.99515	0.502346	-0.0246667
C	4.95348	0.759794	-0.803931
N	3.87996	-0.00178867	-0.485893
H	3.58475	-1.53525	1.04708
H	6.21137	-0.896702	1.60615
H	4.92241	1.49635	-1.62292
H	2.94074	0.0152489	-0.953687
