18
  This energy is -0.4168 and Call times are: 99450
C	-0.806402	-0.595622	-0.530426
C	-1.08701	0.512431	0.213785
C	0.168317	0.976635	0.71256
C	1.10523	0.111272	0.229113
O	0.527625	-0.8552	-0.532018
H	-1.45824	-1.27758	-1.10077
H	-2.07853	0.958177	0.393488
H	0.343618	1.85386	1.35587
H	2.20006	0.0752041	0.352769
C	7.49974	0.359326	0.78511
C	7.7273	0.0198144	-0.531739
N	6.5776	-0.349453	-1.14683
C	5.64036	-0.239443	-0.215112
N	6.14606	0.184513	0.967306
H	8.18252	0.701547	1.57898
H	8.70046	0.0346905	-1.04903
H	4.56789	-0.45661	-0.345057
H	5.60924	0.348756	1.85393
