18
  This energy is -1.0496 and Call times are: 43242
C	0.347873	0.332095	1.02718
C	-0.276747	1.17819	0.158648
C	-0.555799	0.404061	-1.00882
C	-0.0770703	-0.846754	-0.750645
O	0.478147	-0.908718	0.488268
H	0.742738	0.489175	2.04436
H	-0.516897	2.24084	0.323555
H	-1.05533	0.747166	-1.92906
H	-0.0704794	-1.7668	-1.35787
C	4.38902	0.887098	0.304399
C	4.01167	-0.343728	-0.189377
N	5.09214	-1.12445	-0.433455
C	6.13582	-0.380782	-0.0923949
N	5.7642	0.84074	0.358571
H	3.79606	1.76347	0.610848
H	2.97915	-0.682416	-0.37389
H	7.19415	-0.681651	-0.152834
H	6.4021	1.60659	0.686922
