18
  This energy is -0.9636 and Call times are: 49572
C	-1.09317	0.169506	-0.250308
C	-0.450384	-0.998407	-0.538726
C	0.891186	-0.830398	-0.0782047
C	0.949787	0.425351	0.450978
O	-0.253161	1.05032	0.354316
H	-2.13278	0.493547	-0.421951
H	-0.878058	-1.88889	-1.02681
H	1.71049	-1.56472	-0.138237
H	1.77684	0.983161	0.920105
C	6.46975	0.457203	-0.485426
C	5.18304	0.5371	-0.974445
N	4.30998	-0.103437	-0.159594
C	5.05224	-0.578897	0.831168
N	6.36139	-0.267433	0.680485
H	7.42306	0.851572	-0.871711
H	4.86901	1.04545	-1.90063
H	4.68811	-1.16194	1.69239
H	7.14463	-0.528259	1.32837
