18
  This energy is -1.1864 and Call times are: 166345
C	-0.331739	-0.322589	1.03551
C	-0.909749	-0.807522	-0.100761
C	-0.2305	-0.174159	-1.18593
C	0.702628	0.641901	-0.61699
O	0.654867	0.563799	0.738971
H	-0.529379	-0.526537	2.10069
H	-1.73196	-1.53796	-0.168015
H	-0.421351	-0.315894	-2.26184
H	1.4501	1.31922	-1.06172
C	4.99496	-0.402583	-1.10182
C	5.64588	-0.884277	0.0141657
N	5.30133	-0.183104	1.12148
C	4.43994	0.730106	0.694077
N	4.22213	0.639044	-0.639286
H	5.02598	-0.716835	-2.1572
H	6.35795	-1.72519	0.0401865
H	3.93876	1.48997	1.31509
H	3.58578	1.24624	-1.21168
