18
  This energy is -1.2038 and Call times are: 175879
C	-0.0705008	0.774697	-0.825394
C	-0.655589	0.951247	0.393981
C	-0.348519	-0.221982	1.14854
C	0.397108	-1.01191	0.323657
O	0.576679	-0.418831	-0.885901
H	-0.0420384	1.41509	-1.72225
H	-1.24435	1.82046	0.728532
H	-0.651863	-0.443277	2.18445
H	0.852828	-2.00395	0.476701
C	3.86294	0.213215	-0.799346
C	4.28922	1.06303	0.199273
N	5.27102	0.493378	0.939591
C	5.45313	-0.705275	0.402288
N	4.62789	-0.9219	-0.64921
H	3.09497	0.331936	-1.58016
H	3.90595	2.07699	0.398851
H	6.17751	-1.46405	0.739578
H	4.57993	-1.78929	-1.23793
