18
  This energy is -0.8191 and Call times are: 87594
C	-0.773561	0.821102	0.117458
C	-1.06472	-0.493387	0.335911
C	0.147225	-1.20831	0.0905533
C	1.07199	-0.26759	-0.256174
O	0.526934	0.977318	-0.244926
H	-1.3955	1.72876	0.185332
H	-2.03554	-0.917068	0.639386
H	0.302894	-2.29651	0.16597
H	2.13635	-0.354682	-0.52969
C	5.48998	1.10116	0.405522
C	6.01356	-0.0376438	0.980108
N	5.71815	-1.13647	0.244014
C	5.014	-0.681078	-0.783317
N	4.84912	0.661945	-0.731394
H	5.52686	2.15779	0.714899
H	6.59917	-0.0861048	1.91261
H	4.59495	-1.28765	-1.60228
H	4.33169	1.25555	-1.42505
