18
  This energy is -1.0888 and Call times are: 109799
C	0.879841	-0.488304	-0.523297
C	0.439501	-0.897308	0.701117
C	-0.667375	-0.053002	1.02063
C	-0.80572	0.797412	-0.0367372
O	0.130872	0.545782	-0.988834
H	1.70484	-0.846568	-1.1607
H	0.852691	-1.71185	1.31747
H	-1.28302	-0.0827667	1.93397
H	-1.52083	1.61392	-0.229566
C	5.82149	0.329967	-0.775478
C	4.5842	0.90771	-0.584512
N	3.89373	0.272013	0.393063
C	4.69961	-0.696416	0.806983
N	5.87421	-0.703251	0.133296
H	6.64087	0.57286	-1.47057
H	4.17735	1.77185	-1.13459
H	4.47941	-1.42883	1.60027
H	6.6729	-1.36882	0.276049
