18
  This energy is -1.0405 and Call times are: 57751
C	-0.0296081	0.885915	0.707587
C	0.678952	-0.246302	0.983996
C	0.471996	-1.11834	-0.128134
C	-0.344762	-0.442035	-0.985974
O	-0.661012	0.783742	-0.491538
H	-0.163123	1.82161	1.27495
H	1.28642	-0.447237	1.88105
H	0.887095	-2.12983	-0.264795
H	-0.766236	-0.719697	-1.96603
C	4.21913	-0.777634	0.0667124
C	5.19753	-0.552484	1.0118
N	6.05405	0.416587	0.60709
C	5.60871	0.791197	-0.58453
N	4.50433	0.10065	-0.95479
H	3.36848	-1.47736	0.0493665
H	5.30076	-1.07191	1.97843
H	6.05353	1.56653	-1.22891
H	3.9676	0.212914	-1.84954
