18
  This energy is -0.8441 and Call times are: 80284
C	-1.0145	-0.132101	-0.489637
C	-0.012039	0.588712	-1.06919
C	1.09009	0.52444	-0.162936
C	0.663838	-0.229975	0.89041
O	-0.619147	-0.639305	0.707632
H	-2.04117	-0.355769	-0.823051
H	-0.0453509	1.11307	-2.03771
H	2.0812	0.989063	-0.289101
H	1.17067	-0.54307	1.81796
C	5.28329	-1.0681	-0.444186
C	4.82813	0.138732	-0.931573
N	5.27088	1.17048	-0.17264
C	5.99795	0.605867	0.781937
N	6.03615	-0.742356	0.661832
H	5.12984	-2.1012	-0.794451
H	4.1882	0.283471	-1.81723
H	6.52434	1.13298	1.59391
H	6.54276	-1.41195	1.29131
