18
  This energy is -1.685 and Call times are: 78560
C	-0.170548	-0.314043	1.07643
C	0.822681	0.548399	0.715781
C	0.717657	0.695216	-0.701093
C	-0.330479	-0.0904685	-1.0812
O	-0.884647	-0.714232	-0.00843569
H	-0.468859	-0.71602	2.0586
H	1.55575	1.03261	1.38079
H	1.35311	1.31589	-1.35306
H	-0.774921	-0.288164	-2.07046
C	4.86703	1.07724	-0.0808162
C	4.69947	0.169025	-1.10464
N	4.12825	-0.974571	-0.654741
C	3.94215	-0.776565	0.643251
N	4.37128	0.445611	1.03787
H	5.28986	2.0944	-0.0695161
H	4.98051	0.318434	-2.15989
H	3.49588	-1.49331	1.35132
H	4.33353	0.837392	2.01067
