18
  This energy is -0.6584 and Call times are: 147423
C	-0.715668	-0.537332	-0.696774
C	0.617328	-0.425481	-0.963203
C	1.17452	0.305795	0.129906
C	0.132832	0.576262	0.967821
O	-1.02909	0.0687378	0.478579
H	-1.53533	-1.01723	-1.25634
H	1.15436	-0.818507	-1.8414
H	2.22946	0.592486	0.26775
H	0.0884555	1.11387	1.92921
C	6.50556	0.265001	-1.02921
C	6.86711	-0.747672	-0.166119
N	6.06772	-0.765828	0.928032
C	5.21351	0.231788	0.744421
N	5.43625	0.883942	-0.421199
H	6.91973	0.578547	-2.00065
H	7.69043	-1.46553	-0.313294
H	4.4051	0.528384	1.43198
H	4.8971	1.70469	-0.791262
