18
  This energy is -1.4827 and Call times are: 195314
C	0.556944	-0.00420181	0.988027
C	-0.478859	-0.853207	0.729808
C	-0.913023	-0.548323	-0.596339
C	-0.104205	0.460079	-1.03144
O	0.799385	0.804926	-0.0766541
H	1.19458	0.121599	1.87845
H	-0.895394	-1.6175	1.40542
H	-1.73311	-1.02923	-1.15337
H	-0.0706695	1.0101	-1.98622
C	4.88637	-0.514818	-1.05221
C	6.05728	-0.308921	-0.353839
N	5.81942	0.313681	0.826119
C	4.50595	0.493346	0.859635
N	3.89822	0.0108678	-0.250085
H	4.69283	-0.98262	-2.03059
H	7.06945	-0.598454	-0.680235
H	3.93735	0.972581	1.67281
H	2.87017	0.0330216	-0.459537
