18
  This energy is -0.7482 and Call times are: 143859
C	-0.320257	-1.00046	0.427687
C	0.738152	-0.298547	0.925143
C	0.824899	0.889247	0.136639
C	-0.188158	0.808322	-0.773054
O	-0.897691	-0.33925	-0.609802
H	-0.757459	-1.96923	0.720254
H	1.39219	-0.588165	1.76327
H	1.55956	1.70367	0.241856
H	-0.504661	1.49225	-1.57761
C	4.89426	0.582176	-0.186121
C	5.94479	0.442236	-1.06813
N	6.94493	-0.292802	-0.524123
C	6.51649	-0.607662	0.690752
N	5.2852	-0.103429	0.942283
H	3.92835	1.10373	-0.278508
H	5.999	0.858472	-2.08728
H	7.06427	-1.20526	1.43711
H	4.73348	-0.213743	1.82811
