18
  This energy is -0.9169 and Call times are: 169673
C	-1.12543	0.12201	-0.0701548
C	-0.542097	-1.01985	0.394885
C	0.866672	-0.79289	0.331803
C	1.01986	0.46762	-0.166216
O	-0.186409	1.04109	-0.417351
H	-2.18377	0.401169	-0.201474
H	-1.05263	-1.93059	0.747015
H	1.66558	-1.49268	0.625299
H	1.92168	1.06256	-0.385307
C	6.68323	-0.204795	0.412024
C	5.92756	0.932984	0.600606
N	4.72505	0.828584	-0.015508
C	4.73469	-0.369406	-0.584148
N	5.89348	-1.03158	-0.355381
H	7.69341	-0.475602	0.758069
H	6.22848	1.82734	1.17019
H	3.91953	-0.811437	-1.17943
H	6.1428	-1.99184	-0.697429
