18
  This energy is -0.7391 and Call times are: 31631
C	-0.600684	0.574718	-0.771544
C	0.444546	-0.232397	-1.11277
C	0.938124	-0.772553	0.113903
C	0.150942	-0.247837	1.09645
O	-0.794095	0.577162	0.573669
H	-1.27743	1.1928	-1.38411
H	0.829376	-0.427786	-2.12659
H	1.78173	-1.47001	0.240272
H	0.160962	-0.381329	2.19067
C	6.17843	1.11415	0.023369
C	6.90252	-0.0127423	0.350379
N	6.15296	-1.13299	0.209963
C	4.96836	-0.702695	-0.20259
N	4.93313	0.644892	-0.330487
H	6.45206	2.18122	0.0176179
H	7.95237	-0.037542	0.685117
H	4.09153	-1.33161	-0.425886
H	4.11337	1.22224	-0.640199
