18
  This energy is -0.5135 and Call times are: 65089
C	0.769908	-0.258912	-0.791585
C	-0.46934	-0.828025	-0.764188
C	-1.13733	-0.256356	0.361471
C	-0.247306	0.611629	0.922578
O	0.922739	0.622781	0.231288
H	1.62199	-0.395178	-1.47761
H	-0.87262	-1.57542	-1.46623
H	-2.16149	-0.472387	0.70572
H	-0.324656	1.27078	1.80279
C	7.00158	0.410985	-0.0520433
C	6.32511	-0.00261757	1.07599
N	5.07156	-0.416543	0.769738
C	4.97075	-0.260323	-0.543295
N	6.10819	0.235842	-1.08518
H	8.02148	0.804433	-0.188167
H	6.71908	-0.00977438	2.10535
H	4.08666	-0.493564	-1.15829
H	6.2773	0.446899	-2.09914
