18
  This energy is -0.8221 and Call times are: 107410
C	-0.253132	-0.398553	1.03125
C	-0.52552	0.884426	0.656892
C	-0.0665909	1.00441	-0.690366
C	0.445729	-0.215832	-1.02036
O	0.340061	-1.0848	0.0192242
H	-0.429652	-0.93743	1.97661
H	-1.00184	1.66774	1.26816
H	-0.116336	1.89925	-1.33137
H	0.907765	-0.587757	-1.94958
C	4.27222	-0.137378	-0.307143
C	4.75443	0.555156	0.783277
N	6.10793	0.508697	0.832094
C	6.46405	-0.209926	-0.224026
N	5.39323	-0.622629	-0.942794
H	3.24494	-0.313365	-0.663866
H	4.14996	1.0875	1.53566
H	7.4952	-0.464083	-0.51788
H	5.41316	-1.20189	-1.81762
