18
  This energy is -2.47 and Call times are: 170754
C	0.292332	0.814464	0.733207
C	0.383286	-0.511447	1.0399
C	-0.0679973	-1.21283	-0.119631
C	-0.394886	-0.253607	-1.03254
O	-0.181077	0.990285	-0.528531
H	0.530274	1.71814	1.31802
H	0.733078	-0.951451	1.98761
H	-0.137671	-2.30476	-0.24971
H	-0.784861	-0.325835	-2.06111
C	4.58903	-0.780201	0.876615
C	5.56632	-0.447265	-0.0372709
N	5.12092	0.489312	-0.909593
C	3.87205	0.736464	-0.538284
N	3.50438	-0.00403549	0.53413
H	4.58866	-1.49083	1.71837
H	6.58484	-0.866066	-0.0828327
H	3.18225	1.45022	-1.01679
H	2.57091	0.0103567	1.01339
