18
  This energy is -1.0075 and Call times are: 87402
C	-0.316094	0.84733	0.684483
C	0.649181	-0.0513255	1.03238
C	0.762742	-0.950243	-0.0717752
C	-0.143163	-0.521549	-0.996941
O	-0.810895	0.575221	-0.551697
H	-0.735514	1.71419	1.22104
H	1.22362	-0.0784806	1.97227
H	1.44273	-1.81294	-0.1582
H	-0.404575	-0.905448	-1.99671
C	4.71232	1.01889	0.0398057
C	4.32213	-0.13687	-0.602923
N	5.24132	-1.11958	-0.442059
C	6.19812	-0.575533	0.297652
N	5.92581	0.712603	0.614111
H	4.22848	2.00477	0.126265
H	3.39383	-0.279272	-1.17984
H	7.11981	-1.07565	0.636178
H	6.52493	1.35551	1.18768
