18
  This energy is -1.3918 and Call times are: 40841
C	-0.0409704	-0.279651	1.09842
C	-0.194762	1.00458	0.66542
C	-0.0818652	0.953594	-0.757525
C	0.130949	-0.357285	-1.06846
O	0.158872	-1.12462	0.0528975
H	-0.0528178	-0.716299	2.11057
H	-0.370115	1.89814	1.28581
H	-0.152281	1.79977	-1.45975
H	0.276187	-0.864869	-2.03619
C	5.77155	0.0913897	0.0649211
C	4.86728	1.12341	-0.0705996
N	3.59574	0.656584	-0.112582
C	3.71074	-0.660042	-0.00352136
N	5.00275	-1.05029	0.106113
H	6.87107	0.0887004	0.132703
H	5.10956	2.19649	-0.138836
H	2.88124	-1.3854	0.00169021
H	5.35223	-2.03495	0.203869
