18
  This energy is -0.7358 and Call times are: 182350
C	-0.239685	0.159843	1.097
C	-1.20713	-0.0750103	0.164647
C	-0.522818	-0.221588	-1.08049
C	0.802385	-0.0633676	-0.799101
O	0.993541	0.170342	0.525984
H	-0.298668	0.333327	2.18405
H	-2.29364	-0.138645	0.336478
H	-0.973276	-0.421465	-2.066
H	1.69555	-0.0938317	-1.44453
C	5.41717	-0.967441	-0.464788
C	4.79208	-0.0314554	0.331664
N	5.64881	0.955451	0.690174
C	6.80102	0.632942	0.118307
N	6.71291	-0.518256	-0.589202
H	5.04408	-1.89058	-0.936115
H	3.73825	-0.050575	0.654035
H	7.74074	1.20452	0.185125
H	7.48462	-0.980553	-1.12957
