18
  This energy is -0.9901 and Call times are: 10141
C	0.476467	-1.01975	-0.139598
C	-0.145347	-0.358518	-1.15768
C	-0.609818	0.871263	-0.599092
C	-0.230834	0.85297	0.711026
O	0.433706	-0.294479	1.00895
H	0.98167	-1.99893	-0.10465
H	-0.26495	-0.702281	-2.19769
H	-1.16114	1.67057	-1.1199
H	-0.371896	1.58491	1.5232
C	5.40324	-0.0997557	0.9384
C	5.32303	0.971983	0.0746368
N	4.40552	0.748565	-0.897358
C	3.91839	-0.45719	-0.637582
N	4.48792	-1.01022	0.459408
H	6.02613	-0.273187	1.83029
H	5.91074	1.90244	0.135372
H	3.14329	-0.982602	-1.21844
H	4.27314	-1.95294	0.86733
