18
  This energy is -1.2226 and Call times are: 177636
C	-0.256901	1.04929	-0.345538
C	-0.150251	0.000761228	-1.21133
C	0.180659	-1.13505	-0.410985
C	0.24701	-0.680337	0.873228
O	-0.0174644	0.651445	0.931726
H	-0.494447	2.11295	-0.511196
H	-0.290531	0.0247445	-2.30396
H	0.347957	-2.1668	-0.759705
H	0.469893	-1.19704	1.82117
C	5.49765	-0.600946	0.16927
C	5.01629	0.437188	0.938503
N	3.83723	0.897934	0.454727
C	3.58808	0.148484	-0.610576
N	4.55974	-0.770013	-0.824672
H	6.4108	-1.21102	0.255933
H	5.49863	0.861994	1.8339
H	2.70873	0.229864	-1.26963
H	4.59239	-1.47636	-1.60009
