18
  This energy is -1.1529 and Call times are: 146037
C	-1.09428	0.25867	-0.148432
C	-0.375422	-0.435585	-1.07667
C	0.94097	-0.562189	-0.537036
C	0.910328	0.0658767	0.673322
O	-0.324805	0.573041	0.926782
H	-2.14645	0.587312	-0.134789
H	-0.735979	-0.819984	-2.04431
H	1.80399	-1.06426	-1.0031
H	1.68979	0.218363	1.43781
C	7.25329	0.569919	-0.795923
C	6.66724	1.10656	0.330885
N	5.98546	0.162381	1.02386
C	6.14795	-0.955752	0.3296
N	6.90484	-0.762144	-0.776389
H	7.87298	1.02645	-1.58402
H	6.72412	2.1581	0.656261
H	5.73441	-1.94441	0.586073
H	7.17481	-1.48839	-1.48416
