18
  This energy is -1.0643 and Call times are: 87976
C	0.162993	-0.66284	-0.905802
C	0.0612931	0.693889	-1.00232
C	-0.136674	1.16696	0.330768
C	-0.138473	0.0575595	1.12424
O	0.0432932	-1.06872	0.385687
H	0.318893	-1.44061	-1.67132
H	0.119811	1.30067	-1.92019
H	-0.262166	2.21346	0.651994
H	-0.258025	-0.0619764	2.21358
C	3.92944	-0.11562	-0.0390172
C	4.81156	-0.873287	0.701894
N	6.08916	-0.465404	0.507233
C	5.99996	0.541473	-0.351176
N	4.71858	0.791141	-0.710763
H	2.83257	-0.156182	-0.132664
H	4.54904	-1.70694	1.37343
H	6.84157	1.1308	-0.749455
H	4.38901	1.53394	-1.37477
