18
  This energy is -0.5484 and Call times are: 178157
C	0.998463	0.0276064	-0.537317
C	0.382878	-1.14171	-0.199485
C	-0.83244	-0.769692	0.452223
C	-0.852234	0.594116	0.455109
O	0.258192	1.09775	-0.145153
H	1.95235	0.229634	-1.05165
H	0.747985	-2.1637	-0.39009
H	-1.59696	-1.44589	0.867376
H	-1.58934	1.31377	0.847567
C	6.30123	-0.60547	-0.988942
C	5.09722	-0.473217	-0.330133
N	5.2285	0.295662	0.778066
C	6.50907	0.639094	0.806644
N	7.19802	0.120602	-0.237433
H	6.57422	-1.14683	-1.90869
H	4.13618	-0.918809	-0.634579
H	6.99496	1.26857	1.56947
H	8.22053	0.247522	-0.436521
