18
  This energy is -0.8388 and Call times are: 176808
C	0.167437	-1.01796	-0.471291
C	0.65413	-0.694693	0.761186
C	0.242669	0.651491	1.00327
C	-0.459139	1.03202	-0.102636
O	-0.51505	0.024812	-1.01336
H	0.237471	-1.94409	-1.06513
H	1.24374	-1.33952	1.4325
H	0.449828	1.25793	1.8996
H	-0.961611	1.97897	-0.359628
C	6.27467	0.267644	-0.602888
C	5.93341	0.710679	0.65743
N	4.73849	0.203582	1.0467
C	4.33997	-0.551172	0.0317317
N	5.2318	-0.545321	-0.987191
H	7.15644	0.466712	-1.23249
H	6.52798	1.38714	1.29283
H	3.40358	-1.12992	-0.0177462
H	5.1453	-1.0617	-1.89666
