18
  This energy is -2.3788 and Call times are: 30974
C	0.114671	1.03907	-0.439987
C	-0.015496	0.823788	0.900567
C	-0.134139	-0.590678	1.05971
C	-0.0659994	-1.11489	-0.197635
O	0.0859388	-0.13388	-1.12583
H	0.233289	1.96691	-1.02333
H	-0.0268297	1.58471	1.69741
H	-0.255751	-1.14449	2.00449
H	-0.112463	-2.15514	-0.559542
C	4.09047	1.13418	-0.31407
C	5.02716	0.502195	0.476089
N	4.72763	-0.809961	0.634326
C	3.60937	-0.991313	-0.0550462
N	3.18497	0.151062	-0.645348
H	4.00696	2.17909	-0.652775
H	5.91373	0.969507	0.934841
H	3.05927	-1.94022	-0.160878
H	2.32919	0.265969	-1.24175
