18
  This energy is -0.9622 and Call times are: 37102
C	0.858782	0.417212	-0.612233
C	0.253547	-0.767006	-0.915043
C	-0.765081	-0.948521	0.0696224
C	-0.692395	0.140799	0.887224
O	0.293783	0.985261	0.485542
H	1.69077	0.957107	-1.09343
H	0.499715	-1.44473	-1.74822
H	-1.46572	-1.79496	0.151684
H	-1.27772	0.428133	1.77609
C	4.4618	0.272601	0.48263
C	4.90729	0.622366	-0.77449
N	6.15275	0.139713	-1.00335
C	6.47868	-0.507017	0.107564
N	5.49222	-0.455865	1.03378
H	3.51599	0.483497	1.00656
H	4.35235	1.21433	-1.52046
H	7.42698	-1.03568	0.29589
H	5.50912	-0.888671	1.98963
