18
  This energy is -0.5433 and Call times are: 147487
C	0.225425	-0.0152174	-1.11146
C	1.2091	-0.0146624	-0.166603
C	0.539528	0.00696761	1.09487
C	-0.794201	0.0177204	0.809525
O	-1.00427	0.004419	-0.533124
H	0.269651	-0.0284101	-2.21288
H	2.29706	-0.0281322	-0.340508
H	1.00513	0.0136028	2.0935
H	-1.68162	0.0346236	1.46333
C	7.15297	0.68606	0.079158
C	5.8538	1.03642	0.380068
N	5.00742	-0.00158911	0.173445
C	5.7786	-0.99214	-0.254023
N	7.08055	-0.627412	-0.327949
H	8.09256	1.25934	0.124404
H	5.512	2.01959	0.742561
H	5.44158	-2.00513	-0.526982
H	7.88212	-1.23032	-0.636585
