18
  This energy is -0.4773 and Call times are: 52099
C	0.250716	-0.833749	-0.726914
C	1.09944	-0.455405	0.271535
C	0.441099	0.60719	0.962622
C	-0.751807	0.784378	0.325479
O	-0.88476	-0.0871728	-0.708801
H	0.337299	-1.60959	-1.50526
H	2.08975	-0.881815	0.498601
H	0.819487	1.16845	1.83205
H	-1.58124	1.48703	0.508712
C	6.21312	-0.929095	0.69782
C	5.36033	-0.432694	-0.265237
N	5.89561	0.649301	-0.881091
C	7.07598	0.823477	-0.302295
N	7.31393	-0.102843	0.6563
H	6.11773	-1.78336	1.38679
H	4.36841	-0.835879	-0.526736
H	7.80571	1.61357	-0.542054
H	8.17325	-0.177417	1.25401
