18
  This energy is -0.4435 and Call times are: 186042
C	0.364825	-0.899916	-0.58605
C	1.20361	0.0956705	-0.179075
C	0.385109	1.03589	0.518187
C	-0.881588	0.531853	0.475747
O	-0.912431	-0.649876	-0.194759
H	0.551214	-1.82684	-1.1529
H	2.28975	0.161377	-0.352483
H	0.710466	1.97552	0.992879
H	-1.83406	0.913143	0.879072
C	5.59754	-0.411904	0.000446611
C	6.65132	-0.868872	-0.762347
N	7.78025	-0.163428	-0.5086
C	7.42815	0.727789	0.408125
N	6.122	0.61864	0.748179
H	4.54658	-0.736311	0.0620376
H	6.61727	-1.69495	-1.49124
H	8.08719	1.48375	0.864664
H	5.60696	1.20696	1.44808
