18
  This energy is -1.17 and Call times are: 67470
C	-0.109065	0.340695	1.0763
C	-0.656548	-0.821898	0.619125
C	-0.307406	-0.901284	-0.763595
C	0.422611	0.219806	-1.02931
O	0.553618	0.989657	0.0829716
H	-0.119554	0.811384	2.0731
H	-1.24703	-1.55049	1.19756
H	-0.573358	-1.70366	-1.47039
H	0.897919	0.580038	-1.95644
C	5.18559	1.1004	-0.159764
C	3.96296	0.717832	0.350077
N	3.85289	-0.632136	0.394593
C	5.00287	-1.08533	-0.0858041
N	5.84007	-0.0796678	-0.434136
H	5.6217	2.0957	-0.340716
H	3.15828	1.3917	0.6866
H	5.28412	-2.14414	-0.20429
H	6.80407	-0.179819	-0.836546
