18
  This energy is -1.6591 and Call times are: 36347
C	0.579529	0.926861	-0.302449
C	-0.436421	0.964985	0.606819
C	-0.909965	-0.377753	0.720524
C	-0.141589	-1.11787	-0.129297
O	0.773256	-0.337259	-0.762319
H	1.23359	1.71942	-0.701577
H	-0.814444	1.84988	1.14362
H	-1.72814	-0.74092	1.36301
H	-0.146419	-2.1936	-0.370216
C	4.13325	1.03112	-0.566365
C	4.56234	-0.189271	-1.04351
N	4.37462	-1.16685	-0.123937
C	3.83114	-0.555249	0.919709
N	3.66528	0.770954	0.702298
H	4.12797	2.03291	-1.02455
H	5.004	-0.381913	-2.0348
H	3.53512	-1.03095	1.86855
H	3.25783	1.46816	1.37248
