18
  This energy is -1.1769 and Call times are: 158795
C	0.833819	0.445223	0.626836
C	0.405413	1.02031	-0.533388
C	-0.639659	0.179327	-1.024
C	-0.757626	-0.835428	-0.120265
O	0.134532	-0.688973	0.894436
H	1.61735	0.741061	1.34364
H	0.787049	1.94406	-0.997213
H	-1.22941	0.321393	-1.94384
H	-1.42821	-1.70973	-0.0860937
C	4.60825	-0.140796	0.859306
C	5.91011	-0.594945	0.851065
N	6.53911	-0.254463	-0.299995
C	5.63093	0.40839	-1.00317
N	4.45015	0.503775	-0.347226
H	3.80977	-0.22778	1.61322
H	6.40679	-1.16219	1.65505
H	5.77762	0.845319	-2.00407
H	3.58001	0.978331	-0.692061
