18
  This energy is -0.9726 and Call times are: 73845
C	0.683855	-0.246709	-0.870562
C	1.10566	-0.293597	0.425685
C	-0.0236147	0.076742	1.21797
C	-1.03581	0.317246	0.33593
O	-0.621439	0.124544	-0.943981
H	1.20861	-0.45207	-1.81804
H	2.11116	-0.562043	0.78763
H	-0.0677667	0.152524	2.31633
H	-2.08233	0.627175	0.490834
C	6.06179	1.04865	0.268677
C	6.57246	-0.189186	0.597506
N	5.78213	-1.18448	0.127102
C	4.78495	-0.566453	-0.4912
N	4.90804	0.780816	-0.433702
H	6.42561	2.06719	0.477815
H	7.49701	-0.381943	1.16575
H	3.93843	-1.05222	-1.00273
H	4.24997	1.48684	-0.845683
