18
  This energy is -0.8387 and Call times are: 209081
C	-1.04584	0.318551	-0.301886
C	-0.446546	0.766298	0.838614
C	0.84246	0.151816	0.870116
C	0.917065	-0.617187	-0.253914
O	-0.227381	-0.52729	-0.981357
H	-2.03806	0.524689	-0.735777
H	-0.869732	1.45973	1.58304
H	1.6174	0.274088	1.64382
H	1.71837	-1.26604	-0.643974
C	6.92594	-0.334985	1.11471
C	6.19272	0.59251	0.405282
N	6.67092	0.733036	-0.85491
C	7.6969	-0.104097	-0.926997
N	7.89132	-0.771438	0.235091
H	6.83218	-0.703042	2.14877
H	5.32723	1.16281	0.780156
H	8.33999	-0.267738	-1.80671
H	8.63565	-1.48531	0.42906
