18
  This energy is -1.534 and Call times are: 17091
C	-0.133863	-0.587135	-0.961121
C	-0.744346	-0.945468	0.204761
C	-0.337462	0.0227462	1.17281
C	0.485743	0.88727	0.513036
O	0.621304	0.529938	-0.791168
H	-0.156107	-1.03825	-1.96673
H	-1.41401	-1.80534	0.366818
H	-0.628932	0.0628216	2.23467
H	1.02964	1.78333	0.854376
C	3.94477	-0.00399576	1.17604
C	3.88989	1.10146	0.353788
N	3.84807	0.738221	-0.951134
C	3.8769	-0.587537	-0.938466
N	3.93533	-1.08289	0.320422
H	3.98842	-0.0961903	2.27292
H	3.87971	2.15463	0.678731
H	3.85738	-1.24524	-1.82236
H	3.96734	-2.09583	0.59279
