18
  This energy is -1.1086 and Call times are: 131504
C	-0.317196	0.937318	0.554277
C	0.33743	-0.0889043	1.16967
C	0.561922	-1.07198	0.158093
C	0.024663	-0.559716	-0.986159
O	-0.516515	0.666718	-0.76256
H	-0.69021	1.90113	0.937907
H	0.632614	-0.147719	2.22962
H	1.06577	-2.04455	0.277795
H	-0.0359923	-0.963752	-2.01004
C	4.06276	-0.458056	0.688701
C	4.71197	-1.08546	-0.353429
N	5.61968	-0.261215	-0.930673
C	5.5339	0.873209	-0.249241
N	4.60925	0.804932	0.737648
H	3.27676	-0.809245	1.37602
H	4.54168	-2.11809	-0.699145
H	6.12491	1.78531	-0.430946
H	4.35676	1.5686	1.41167
