18
  This energy is -0.8856 and Call times are: 16499
C	0.507822	0.596145	0.820444
C	0.877104	-0.679382	0.508937
C	0.0187873	-1.08538	-0.558102
C	-0.79923	-0.0221185	-0.804452
O	-0.514528	1.01354	0.0282361
H	0.888954	1.30409	1.57464
H	1.67398	-1.27465	0.983
H	0.0178664	-2.05803	-1.07584
H	-1.61236	0.120912	-1.53494
C	4.77539	0.127581	0.989282
C	4.6439	-0.87418	0.0510239
N	5.52642	-0.711458	-0.964452
C	6.20283	0.387075	-0.657335
N	5.78727	0.930058	0.511455
H	4.23842	0.31979	1.93175
H	3.92806	-1.71144	0.0886062
H	7.01274	0.837986	-1.25312
H	6.1641	1.79715	0.966881
