18
  This energy is -0.7174 and Call times are: 146746
C	0.81613	0.0905415	-0.782391
C	0.639465	1.02032	0.199786
C	-0.468852	0.563175	0.976166
C	-0.871625	-0.605607	0.399888
O	-0.0979865	-0.909434	-0.675372
H	1.54605	0.0267974	-1.60604
H	1.23034	1.93621	0.361356
H	-0.908148	1.05415	1.85937
H	-1.68382	-1.30543	0.656492
C	4.91061	0.188054	-0.60897
C	6.20214	0.256768	-1.08686
N	7.09996	-0.0186479	-0.109834
C	6.3682	-0.257315	0.970067
N	5.042	-0.145172	0.720648
H	3.93971	0.347387	-1.10445
H	6.50223	0.500138	-2.11912
H	6.75243	-0.518611	1.96923
H	4.26239	-0.285358	1.40899
