18
  This energy is -0.8549 and Call times are: 23387
C	0.717743	-0.571607	-0.666717
C	0.514523	0.771097	-0.79408
C	-0.443339	1.11826	0.206967
C	-0.740897	-0.0429451	0.857687
O	-0.0408825	-1.08509	0.337191
H	1.36697	-1.26865	-1.22159
H	0.991308	1.44906	-1.52013
H	-0.85688	2.1189	0.411388
H	-1.42445	-0.256949	1.69567
C	4.41343	-0.402405	0.206242
C	5.36831	-0.976804	-0.6058
N	6.50887	-0.244958	-0.611958
C	6.2625	0.779562	0.193203
N	5.01246	0.729922	0.711403
H	3.38435	-0.709064	0.452182
H	5.25471	-1.90618	-1.18735
H	6.9622	1.59476	0.438362
H	4.58168	1.42213	1.37211
