18
  This energy is -0.9732 and Call times are: 109255
C	-0.144632	0.121337	-1.11837
C	-0.764021	-0.861856	-0.404185
C	-0.338556	-0.689785	0.948401
C	0.503268	0.383367	0.941356
O	0.633231	0.891138	-0.312554
H	-0.174797	0.375729	-2.19058
H	-1.45155	-1.63111	-0.79104
H	-0.630616	-1.2991	1.81877
H	1.0651	0.877178	1.75114
C	5.21356	-0.869913	-0.784506
C	4.04994	-0.218767	-0.433581
N	4.28546	0.732164	0.502779
C	5.59023	0.671182	0.731874
N	6.19465	-0.279131	-0.0199047
H	5.40645	-1.68471	-1.50035
H	3.04467	-0.418082	-0.839249
H	6.15454	1.29928	1.43989
H	7.21604	-0.52	-0.0202585
