18
  This energy is -0.7042 and Call times are: 82532
C	1.13327	0.0418166	0.0189925
C	0.407217	0.404845	-1.07711
C	-0.962553	0.217081	-0.71851
C	-0.952631	-0.244111	0.56507
O	0.31894	-0.357184	1.03126
H	2.22011	0.0224972	0.20244
H	0.797118	0.768383	-2.04143
H	-1.84584	0.406094	-1.34951
H	-1.77169	-0.524685	1.24747
C	5.25269	0.49919	0.646506
C	5.19435	0.186937	-0.695223
N	6.3515	-0.379218	-1.11591
C	7.12477	-0.418044	-0.039262
N	6.50759	0.0999385	1.04903
H	4.51463	0.961827	1.32087
H	4.33804	0.360016	-1.36726
H	8.15152	-0.815259	0.00794109
H	6.90861	0.181806	2.01533
