18
  This energy is -1.392 and Call times are: 201487
C	-0.0312183	0.569442	0.980389
C	-0.561598	-0.679752	0.844057
C	-0.330126	-1.05673	-0.51404
C	0.32127	-0.00461615	-1.08773
O	0.512134	0.997293	-0.189535
H	0.0227413	1.25037	1.84565
H	-1.0653	-1.27595	1.62183
H	-0.618678	-2.00331	-0.998609
H	0.6973	0.15179	-2.11213
C	4.09775	0.80747	0.299145
C	3.85655	-0.488506	-0.105095
N	5.01417	-1.14058	-0.371973
C	5.9699	-0.252511	-0.134201
N	5.46836	0.937582	0.2729
H	3.41387	1.61927	0.593804
H	2.86797	-0.964717	-0.208965
H	7.05348	-0.421136	-0.242139
H	6.01874	1.79588	0.521231
