18
  This energy is -1.1369 and Call times are: 212394
C	-0.286592	0.544361	0.952857
C	-0.953149	0.729251	-0.222681
C	-0.30748	-0.116562	-1.17548
C	0.696638	-0.743651	-0.498075
O	0.724004	-0.35188	0.802993
H	-0.431846	0.985075	1.95282
H	-1.81323	1.39451	-0.400972
H	-0.567413	-0.237477	-2.23939
H	1.44977	-1.4798	-0.823841
C	5.24845	-0.124085	-1.1692
C	6.32435	0.321605	-0.430997
N	6.03482	0.339605	0.892769
C	4.78406	-0.093272	0.975476
N	4.26577	-0.385951	-0.240793
H	5.11695	-0.268614	-2.25334
H	7.30433	0.630501	-0.82984
H	4.19972	-0.215082	1.90173
H	3.29946	-0.744116	-0.438827
