18
  This energy is -1.0715 and Call times are: 123047
C	0.0391179	-0.0495865	1.13244
C	-0.370409	1.06653	0.463896
C	-0.282355	0.744764	-0.924928
C	0.173207	-0.539574	-0.982476
O	0.374895	-1.04026	0.264779
H	0.13524	-0.262438	2.2098
H	-0.701307	2.02069	0.904545
H	-0.531407	1.39985	-1.77518
H	0.391849	-1.20013	-1.83753
C	6.04453	0.0631963	0.266744
C	5.49481	-0.356035	-0.926237
N	4.14133	-0.301101	-0.886611
C	3.85248	0.150492	0.326341
N	4.96607	0.38517	1.06012
H	7.09191	0.152228	0.596283
H	6.05057	-0.69716	-1.81485
H	2.84216	0.32772	0.728936
H	5.00122	0.744021	2.04564
