18
  This energy is -0.8865 and Call times are: 168859
C	-0.454345	-0.441156	-0.940932
C	0.829244	-0.699822	-0.559009
C	1.02904	0.0239431	0.656049
C	-0.1501	0.661	0.909368
O	-1.06725	0.388171	-0.0557318
H	-1.04137	-0.781725	-1.80965
H	1.56189	-1.33643	-1.0806
H	1.94739	0.0600673	1.26385
H	-0.459137	1.32748	1.73129
C	6.29345	-0.410432	-0.986481
C	4.94554	-0.325171	-0.708973
N	4.73242	0.197495	0.523063
C	5.94351	0.435576	1.00803
N	6.91838	0.0860598	0.135638
H	6.83415	-0.777053	-1.87348
H	4.12299	-0.631423	-1.37566
H	6.17358	0.86491	1.99645
H	7.95312	0.176125	0.285496
