18
  This energy is -1.9883 and Call times are: 150077
C	-0.418529	1.04266	0.155244
C	0.376536	0.429768	1.07861
C	0.696926	-0.849883	0.530926
C	0.0693634	-0.906006	-0.67878
O	-0.61651	0.24128	-0.924391
H	-0.900237	2.0342	0.148209
H	0.704496	0.837855	2.04815
H	1.32268	-1.63122	0.991392
H	0.0334461	-1.69497	-1.44787
C	4.94506	-1.1749	0.0410648
C	6.08449	-0.398661	0.0586304
N	5.77832	0.920071	-0.00236525
C	4.454	0.961779	-0.057561
N	3.90485	-0.27575	-0.0342131
H	4.80549	-2.26708	0.0756521
H	7.122	-0.766522	0.114223
H	3.83557	1.87191	-0.116153
H	2.88162	-0.506353	-0.0671748
