18
  This energy is -1.1564 and Call times are: 15486
C	0.475329	0.0785233	1.02679
C	-0.871684	0.176249	0.836057
C	-1.07925	0.0292295	-0.56944
C	0.159251	-0.145359	-1.11351
O	1.12046	-0.11801	-0.153124
H	1.0901	0.131264	1.94031
H	-1.64188	0.335855	1.6077
H	-2.04237	0.0521828	-1.1042
H	0.485221	-0.297182	-2.1556
C	5.22604	-0.856277	0.775106
C	5.98194	-0.517043	-0.327015
N	5.42639	0.519583	-1.00027
C	4.33	0.822293	-0.318417
N	4.16493	0.021242	0.760777
H	5.36353	-1.6341	1.54298
H	6.91823	-1.0017	-0.648456
H	3.61249	1.62132	-0.565315
H	3.37847	0.0610525	1.45443
