18
  This energy is -0.8136 and Call times are: 11518
C	0.745982	0.124157	-0.84528
C	-0.578392	0.415936	-0.991135
C	-1.1821	0.135159	0.272519
C	-0.173346	-0.303412	1.07902
O	1.01108	-0.316504	0.412715
H	1.59043	0.186624	-1.55115
H	-1.07988	0.791236	-1.89764
H	-2.24472	0.249479	0.540569
H	-0.168888	-0.631618	2.13141
C	4.80852	-0.287403	-0.565215
C	5.15473	-0.629995	0.724714
N	6.37056	-0.129859	1.05352
C	6.77709	0.52053	-0.0283055
N	5.87031	0.454948	-1.03182
H	3.91163	-0.51185	-1.16417
H	4.549	-1.22909	1.42402
H	7.73019	1.06222	-0.139624
H	5.95917	0.88724	-1.98392
