18
  This energy is -0.6755 and Call times are: 58200
C	-1.01816	0.475328	0.154291
C	-0.446855	-0.345003	1.08221
C	0.812304	-0.737961	0.534288
C	0.899294	-0.123072	-0.680091
O	-0.209885	0.621967	-0.928388
H	-1.98227	1.00981	0.145742
H	-0.869703	-0.643459	2.05495
H	1.55984	-1.40167	0.997736
H	1.68718	-0.135349	-1.45102
C	5.79639	0.0226284	1.13684
C	4.97735	-0.271303	0.0673011
N	5.65811	-0.203678	-1.10253
C	6.89478	0.130934	-0.760023
N	7.02909	0.279014	0.579239
H	5.59597	0.0660471	2.21919
H	3.9074	-0.530955	0.118775
H	7.74092	0.280568	-1.44986
H	7.90531	0.539502	1.09464
