18
  This energy is -1.2125 and Call times are: 134792
C	0.333185	-0.808243	-0.722587
C	-0.419754	0.258624	-1.11661
C	-0.632571	1.04227	0.0584369
C	0.00910573	0.3851	1.06678
O	0.604371	-0.747129	0.607727
H	0.734958	-1.66707	-1.28494
H	-0.78832	0.472319	-2.13277
H	-1.19895	1.98436	0.134466
H	0.114765	0.616637	2.13938
C	3.97669	0.79719	-0.267846
C	3.98142	-0.536767	-0.616675
N	5.08532	-1.16237	-0.140718
C	5.76284	-0.220111	0.50094
N	5.13579	0.979095	0.45298
H	3.25461	1.60302	-0.474651
H	3.20809	-1.059	-1.20325
H	6.72371	-0.353944	1.02348
H	5.46908	1.87647	0.882976
