18
  This energy is -1.0052 and Call times are: 183287
C	0.50644	-0.16779	1.00088
C	1.15848	-0.336949	-0.185118
C	0.202615	-0.0367568	-1.20311
C	-0.949165	0.289346	-0.549331
O	-0.781706	0.214627	0.797289
H	0.843277	-0.286534	2.04381
H	2.20736	-0.642474	-0.328698
H	0.363015	-0.0632547	-2.29291
H	-1.94233	0.588291	-0.922847
C	5.2812	1.12674	-0.33008
C	5.45458	0.622404	0.941426
N	5.28774	-0.722328	0.960659
C	5.01191	-1.05098	-0.294144
N	4.99633	0.0289049	-1.11097
H	5.33847	2.15489	-0.721438
H	5.69707	1.20473	1.84527
H	4.81297	-2.06766	-0.669655
H	4.8039	0.0297089	-2.14259
