18
  This energy is -1.0036 and Call times are: 79291
C	0.467934	-0.750438	0.710127
C	1.19902	0.213816	0.0807615
C	0.270553	0.950679	-0.71617
C	-0.945943	0.371662	-0.503447
O	-0.844004	-0.668792	0.364928
H	0.759555	-1.54383	1.41775
H	2.28335	0.388661	0.168867
H	0.491875	1.81043	-1.36881
H	-1.94619	0.603537	-0.904676
C	4.81286	-1.01647	0.0844836
C	5.49196	-0.542267	-1.01783
N	6.05389	0.664453	-0.763709
C	5.72464	0.937823	0.491475
N	4.97652	-0.044938	1.04652
H	4.24369	-1.94555	0.24698
H	5.58654	-1.04923	-1.99194
H	6.00499	1.84349	1.05308
H	4.59402	-0.0633087	2.02357
