18
  This energy is -0.6355 and Call times are: 35416
C	-0.84695	0.507781	-0.557885
C	-0.865847	0.330437	0.79436
C	0.355512	-0.335403	1.11848
C	1.01295	-0.506166	-0.0643074
O	0.293096	0.0028522	-1.09858
H	-1.57361	0.972204	-1.24456
H	-1.66017	0.637678	1.49346
H	0.696429	-0.647057	2.11885
H	1.98569	-0.968194	-0.300003
C	6.93915	0.294596	-0.0252866
C	5.87203	1.08294	-0.400654
N	4.69829	0.424516	-0.241538
C	5.03597	-0.767769	0.230744
N	6.37591	-0.895247	0.378722
H	8.02334	0.489586	-0.0173367
H	5.928	2.11503	-0.783438
H	4.34198	-1.58497	0.485261
H	6.88815	-1.7396	0.733602
