18
  This energy is -1.2526 and Call times are: 72092
C	-0.334553	-1.07009	-0.171398
C	-0.577625	-0.0755681	-1.07263
C	-0.0122415	1.10909	-0.509563
C	0.526419	0.733917	0.686038
O	0.338772	-0.593573	0.908682
H	-0.585674	-2.14344	-0.181655
H	-1.10242	-0.167016	-2.03716
H	-0.011517	2.11878	-0.950732
H	1.06197	1.3089	1.45923
C	4.84141	0.541281	-0.825048
C	3.84119	-0.385347	-1.03017
N	3.31347	-0.80316	0.146037
C	3.98376	-0.138261	1.0773
N	4.91608	0.685287	0.542385
H	5.48391	1.09011	-1.53182
H	3.49087	-0.759912	-2.00578
H	3.8323	-0.216614	2.16595
H	5.57103	1.31376	1.06899
