18
  This energy is -1.977 and Call times are: 116922
C	-0.699545	0.291045	-0.843997
C	0.261831	-0.665546	-0.989132
C	0.926715	-0.746237	0.272429
C	0.312946	0.168167	1.07712
O	-0.682605	0.810814	0.411617
H	-1.44866	0.687564	-1.54887
H	0.480813	-1.2552	-1.89382
H	1.7637	-1.41089	0.540355
H	0.488947	0.452412	2.12758
C	4.18999	1.03375	0.237386
C	5.39352	0.572871	0.727554
N	5.67701	-0.661487	0.245369
C	4.65325	-0.965218	-0.540943
N	3.73012	0.0247178	-0.579052
H	3.64636	1.97689	0.406149
H	6.06237	1.10889	1.42049
H	4.52909	-1.89909	-1.11252
H	2.83469	0.0237705	-1.12628
