18
  This energy is -0.7809 and Call times are: 171717
C	0.869779	-0.476603	-0.550213
C	-0.323598	-0.215745	-1.15699
C	-1.15097	0.375981	-0.154275
C	-0.390146	0.424483	0.97673
O	0.846872	-0.0920269	0.753085
H	1.8009	-0.926901	-0.931657
H	-0.594123	-0.419567	-2.2055
H	-2.19053	0.722164	-0.270766
H	-0.610228	0.797513	1.99047
C	7.38028	-0.776833	0.0820025
C	6.37773	-0.561928	1.00388
N	5.53005	0.409483	0.586379
C	6.00492	0.795747	-0.590025
N	7.1196	0.11037	-0.938342
H	8.23237	-1.47504	0.0799221
H	6.25086	-1.0904	1.96277
H	5.57524	1.57628	-1.23839
H	7.67873	0.231709	-1.81806
