18
  This energy is -1.0806 and Call times are: 157163
C	-0.953193	-0.609589	0.0789075
C	-0.230023	-0.530712	-1.07486
C	0.882497	0.315804	-0.781893
C	0.740962	0.679492	0.52504
O	-0.374728	0.123426	1.06637
H	-1.88449	-1.1467	0.322754
H	-0.457217	-1.01959	-2.03583
H	1.68938	0.613752	-1.47056
H	1.35763	1.32023	1.17652
C	5.77787	-0.626971	-0.811213
C	5.84752	-0.780135	0.557302
N	5.04838	0.112784	1.19022
C	4.4851	0.81721	0.21804
N	4.89272	0.40951	-1.0072
H	6.27883	-1.16428	-1.63211
H	6.46008	-1.51893	1.09933
H	3.76696	1.64287	0.347581
H	4.59181	0.807201	-1.93054
