18
  This energy is -1.2772 and Call times are: 32981
C	0.220883	0.790499	0.782766
C	-0.700421	0.978339	-0.205307
C	-0.692906	-0.221527	-0.980151
C	0.232326	-1.03667	-0.397171
O	0.800215	-0.434652	0.680832
H	0.551587	1.44278	1.60764
H	-1.32287	1.87217	-0.371815
H	-1.30837	-0.442964	-1.86687
H	0.573486	-2.05388	-0.650415
C	3.97334	0.795246	0.26328
C	5.20474	1.03944	-0.306961
N	5.90411	-0.109776	-0.470331
C	5.1096	-1.06329	-0.00321608
N	3.93371	-0.5684	0.450591
H	3.14991	1.47276	0.539819
H	5.60108	2.02426	-0.603432
H	5.33938	-2.14047	0.0302922
H	3.14255	-1.11865	0.865984
