18
  This energy is -0.4716 and Call times are: 189124
C	0.133521	-1.11928	0.125656
C	1.02474	-0.21654	0.62683
C	0.519522	1.07097	0.270194
C	-0.635822	0.841356	-0.417432
O	-0.886897	-0.490717	-0.515178
H	0.112677	-2.22101	0.157496
H	1.94553	-0.435346	1.19106
H	0.970727	2.0489	0.50293
H	-1.35962	1.53108	-0.881818
C	5.7774	0.739818	-0.561795
C	5.41844	-0.257588	0.31995
N	6.50838	-0.918381	0.780274
C	7.53959	-0.333138	0.18636
N	7.15095	0.672634	-0.632771
H	5.17278	1.46836	-1.125
H	4.39254	-0.512249	0.632221
H	8.60049	-0.601475	0.31562
H	7.77673	1.28465	-1.21164
