18
  This energy is -1.3244 and Call times are: 151410
C	1.03005	0.466446	-0.0885185
C	0.793646	-0.843803	-0.384723
C	-0.600445	-1.05157	-0.153501
C	-1.09289	0.150062	0.263587
O	-0.110959	1.08855	0.309113
H	1.95333	1.06796	-0.119613
H	1.52737	-1.58922	-0.731275
H	-1.16252	-1.9901	-0.285135
H	-2.10934	0.462496	0.554215
C	4.28543	-0.60896	0.70968
C	4.70896	-0.975135	-0.550352
N	5.52721	-0.0353742	-1.08311
C	5.61098	0.910207	-0.157104
N	4.87995	0.611045	0.942754
H	3.62506	-1.11339	1.43287
H	4.43878	-1.90058	-1.08459
H	6.19363	1.84242	-0.2328
H	4.78428	1.19685	1.80817
