18
  This energy is -1.7163 and Call times are: 55765
C	-0.286645	0.278541	1.06144
C	0.393787	-0.865796	0.764995
C	0.565379	-0.862466	-0.652984
C	-0.0253432	0.283612	-1.09787
O	-0.550867	0.992575	-0.0643305
H	-0.637277	0.69291	2.02092
H	0.740126	-1.63508	1.47375
H	1.07121	-1.62866	-1.26222
H	-0.137222	0.702614	-2.11137
C	3.73589	0.871324	-0.640693
C	3.92275	-0.436675	-1.03486
N	4.48362	-1.17048	-0.0431548
C	4.64409	-0.320943	0.962411
N	4.20857	0.922975	0.651626
H	3.31406	1.74006	-1.17069
H	3.66293	-0.864052	-2.01704
H	5.07537	-0.557106	1.94854
H	4.2274	1.76612	1.27613
