18
  This energy is -0.7518 and Call times are: 61894
C	0.820306	-0.78288	-0.0244629
C	1.0725	0.545238	-0.205777
C	-0.192768	1.20054	-0.106868
C	-1.10646	0.215027	0.126157
O	-0.505248	-1.00264	0.179558
H	1.48845	-1.65969	-0.0178952
H	2.05133	1.01621	-0.390631
H	-0.389997	2.28062	-0.199787
H	-2.19881	0.250015	0.270347
C	6.54643	-0.62741	0.524405
C	5.47017	-0.0178821	1.13373
N	4.69252	0.621313	0.226426
C	5.2841	0.409131	-0.941322
N	6.40592	-0.338572	-0.814631
H	7.37476	-1.22629	0.935205
H	5.24084	-0.027875	2.21176
H	4.93821	0.778305	-1.92025
H	7.04659	-0.640694	-1.58892
