18
  This energy is -1.3096 and Call times are: 122311
C	-0.503055	-0.0491458	-1.01534
C	-0.0473625	1.12049	-0.481807
C	0.513718	0.779255	0.786603
C	0.351363	-0.568787	0.916202
O	-0.267837	-1.09106	-0.17505
H	-1.00584	-0.269776	-1.97126
H	-0.100956	2.123	-0.935897
H	0.981644	1.46459	1.51149
H	0.629268	-1.26422	1.72515
C	4.36709	0.163801	-1.11688
C	3.74685	-0.631477	-0.176681
N	4.40067	-0.586237	1.00948
C	5.42264	0.233987	0.805913
N	5.44616	0.712504	-0.460601
H	4.12502	0.371192	-2.17137
H	2.83929	-1.2371	-0.332961
H	6.18397	0.518779	1.54989
H	6.15194	1.37523	-0.865482
