18
  This energy is -0.8923 and Call times are: 58584
C	-0.456309	-0.873698	0.561102
C	-0.106192	-0.953404	-0.75474
C	0.425008	0.327723	-1.09629
C	0.352607	1.07721	0.0409844
O	-0.183102	0.359341	1.06308
H	-0.902732	-1.61413	1.245
H	-0.211439	-1.82675	-1.41828
H	0.813507	0.645178	-2.0773
H	0.645296	2.11935	0.249652
C	4.15726	0.235222	0.154588
C	5.1034	1.06336	-0.411221
N	6.32231	0.471386	-0.430125
C	6.13305	-0.719464	0.121856
N	4.84426	-0.909731	0.491185
H	3.07963	0.374972	0.335494
H	4.92837	2.07738	-0.806145
H	6.90374	-1.49101	0.279935
H	4.44453	-1.76625	0.947085
