18
  This energy is -1.1437 and Call times are: 159417
C	0.0197619	-1.0626	0.396083
C	1.15031	-0.408234	0.00361837
C	0.724005	0.885423	-0.426299
C	-0.629423	0.907389	-0.258598
O	-1.07646	-0.274059	0.242754
H	-0.135555	-2.07765	0.797085
H	2.18106	-0.797478	0.0156542
H	1.3585	1.69863	-0.813868
H	-1.3779	1.69234	-0.455783
C	5.60918	-0.459986	1.07947
C	6.71329	-0.496982	0.254414
N	6.46708	0.132987	-0.919907
C	5.21499	0.559178	-0.823731
N	4.65433	0.226494	0.363104
H	5.44099	-0.860237	2.09192
H	7.68315	-0.966945	0.485438
H	4.65971	1.11977	-1.59291
H	3.67823	0.449088	0.677649
