18
  This energy is -1.0082 and Call times are: 84311
C	-0.378289	1.0266	-0.298978
C	0.753752	0.852461	0.441652
C	0.89781	-0.558606	0.609742
C	-0.158916	-1.12218	-0.0430093
O	-0.948524	-0.168767	-0.603836
H	-0.876702	1.93743	-0.66941
H	1.42047	1.63879	0.83059
H	1.69843	-1.08386	1.15492
H	-0.456888	-2.17471	-0.179561
C	5.26779	-0.932232	-0.706085
C	4.33548	0.0508631	-0.450214
N	4.82387	0.974786	0.412543
C	6.05449	0.56642	0.690844
N	6.36934	-0.579033	0.0409252
H	5.22669	-1.82829	-1.34556
H	3.31918	0.11005	-0.872673
H	6.76788	1.06856	1.36402
H	7.27923	-1.09901	0.0956511
