18
  This energy is -0.8276 and Call times are: 9173
C	0.117861	-1.04934	-0.413987
C	0.593355	0.0505773	-1.06549
C	0.256939	1.16838	-0.242406
C	-0.394437	0.652854	0.839406
O	-0.48834	-0.700071	0.751148
H	0.1469	-2.12089	-0.671271
H	1.12743	0.0725758	-2.02901
H	0.478313	2.22937	-0.440884
H	-0.833488	1.13662	1.72736
C	4.40628	0.161022	-0.748612
C	5.15188	-0.987189	-0.584807
N	6.10329	-0.820536	0.365751
C	5.9485	0.426321	0.790032
N	4.93804	1.05991	0.148834
H	3.56303	0.394294	-1.41798
H	5.02038	-1.93288	-1.13547
H	6.54787	0.925841	1.56815
H	4.62025	2.0477	0.305498
