18
  This energy is -0.776 and Call times are: 181331
C	0.71765	0.785732	0.392434
C	1.11549	-0.485531	0.0991919
C	-0.0538206	-1.16494	-0.360418
C	-1.06298	-0.248881	-0.307465
O	-0.609735	0.947899	0.150027
H	1.27517	1.65633	0.775167
H	2.13054	-0.902963	0.196751
H	-0.125631	-2.21388	-0.690063
H	-2.13243	-0.323617	-0.564234
C	7.07523	-0.0423212	-0.0462857
C	6.20043	-0.165389	-1.10493
N	4.91412	-0.0675276	-0.689786
C	4.99064	0.115554	0.621416
N	6.27231	0.138239	1.05776
H	8.1756	-0.069546	-0.001923
H	6.47437	-0.32304	-2.16084
H	4.13918	0.238834	1.30993
H	6.59324	0.268546	2.04835
