18
  This energy is -0.8171 and Call times are: 65616
C	0.0652621	-1.10544	0.245232
C	-0.0358598	-0.646003	-1.03503
C	-0.0938641	0.777711	-0.936079
C	-0.0230669	1.0626	0.395912
O	0.0745033	-0.0756425	1.13205
H	0.136892	-2.12768	0.651627
H	-0.0665302	-1.24916	-1.95663
H	-0.178449	1.49789	-1.76571
H	-0.0321439	2.02133	0.939986
C	5.00818	-0.750667	0.882187
C	4.80732	0.6097	0.983206
N	4.59477	1.16403	-0.235009
C	4.66351	0.151411	-1.08853
N	4.91098	-1.02424	-0.46388
H	5.20678	-1.51784	1.6474
H	4.81196	1.20114	1.91327
H	4.54018	0.214964	-2.18168
H	5.00995	-1.96493	-0.918376
