18
  This energy is -1.1125 and Call times are: 12663
C	-0.684842	0.86224	0.271908
C	0.674006	0.980157	0.273671
C	1.17789	-0.297988	-0.116924
C	0.0824747	-1.08413	-0.322893
O	-1.06358	-0.391783	-0.0900235
H	-1.48189	1.58698	0.505854
H	1.26249	1.87721	0.524831
H	2.23473	-0.588964	-0.228819
H	-0.0134673	-2.13781	-0.632423
C	5.90054	0.495327	-1.06284
C	6.88828	-0.159985	-0.358513
N	6.42393	-0.606563	0.833736
C	5.15295	-0.229729	0.86891
N	4.78937	0.438105	-0.251535
H	5.90943	0.982103	-2.05103
H	7.92766	-0.318557	-0.689257
H	4.44342	-0.416864	1.69097
H	3.8416	0.836413	-0.462096
