18
  This energy is -0.8035 and Call times are: 141274
C	0.823078	-0.742027	0.241537
C	0.592637	0.366425	1.0022
C	-0.506716	1.04046	0.388023
C	-0.851025	0.284407	-0.693735
O	-0.0493463	-0.808004	-0.798432
H	1.56718	-1.55016	0.333637
H	1.14173	0.678145	1.90521
H	-0.979466	1.9787	0.72016
H	-1.63656	0.414134	-1.4562
C	4.5826	0.259873	0.262631
C	5.20884	0.433967	-0.95337
N	6.50038	0.0269802	-0.900545
C	6.67472	-0.397982	0.343496
N	5.54764	-0.278255	1.0844
H	3.55286	0.473707	0.590411
H	4.75189	0.845946	-1.86787
H	7.60742	-0.806486	0.7647
H	5.43112	-0.544611	2.09274
