18
  This energy is -0.608 and Call times are: 77954
C	-0.532183	-0.663953	0.749899
C	-0.92797	-0.569321	-0.551935
C	-0.0253847	0.349619	-1.16919
C	0.842282	0.735416	-0.190066
O	0.547531	0.126179	0.988477
H	-0.930259	-1.25029	1.59429
H	-1.77095	-1.09399	-1.02964
H	-0.0294181	0.679096	-2.22063
H	1.70007	1.42769	-0.204527
C	4.76354	0.138817	0.272552
C	5.28069	-0.611944	-0.761883
N	6.6342	-0.548002	-0.782921
C	6.9555	0.239432	0.234593
N	5.86254	0.67916	0.90217
H	3.72584	0.320738	0.594462
H	4.70144	-1.1986	-1.49342
H	7.97588	0.526794	0.53539
H	5.85396	1.31127	1.7398
