18
  This energy is -0.95 and Call times are: 20438
C	-0.279679	0.861511	0.682627
C	-0.359887	0.950426	-0.676062
C	0.0694668	-0.316464	-1.17682
C	0.374144	-1.06772	-0.0799375
O	0.166794	-0.364097	1.06415
H	-0.50836	1.59004	1.47774
H	-0.688439	1.82083	-1.26644
H	0.139996	-0.623623	-2.23265
H	0.742866	-2.10195	0.0184145
C	4.09292	-0.257801	-0.304959
C	4.83524	-0.850294	0.69457
N	6.07422	-0.306578	0.770761
C	6.10043	0.6197	-0.177894
N	4.92949	0.687882	-0.854525
H	3.0629	-0.43625	-0.652476
H	4.49902	-1.66035	1.36211
H	6.95151	1.27648	-0.419843
H	4.7022	1.33739	-1.64682
