18
  This energy is -0.721 and Call times are: 195442
C	0.10551	-0.553092	0.98456
C	0.993123	0.402207	0.584658
C	0.529351	0.859184	-0.686643
C	-0.600726	0.142798	-0.951387
O	-0.874387	-0.724442	0.0585718
H	0.0610866	-1.17513	1.89359
H	1.88498	0.750171	1.13019
H	0.990139	1.63191	-1.32278
H	-1.29044	0.156595	-1.81124
C	6.88252	-0.473588	-0.442114
C	6.63067	-0.173911	0.879972
N	5.3954	0.362061	1.03277
C	4.88287	0.394762	-0.189875
N	5.74082	-0.0981863	-1.11427
H	7.76399	-0.912774	-0.935738
H	7.31816	-0.334827	1.72633
H	3.88371	0.769544	-0.464555
H	5.56904	-0.179011	-2.14636
