18
  This energy is -2.1895 and Call times are: 8955
C	-0.116359	0.780266	-0.81489
C	-0.0963526	-0.557182	-1.08174
C	0.0634889	-1.20546	0.180923
C	0.127049	-0.206932	1.1079
O	0.0188741	1.01232	0.517355
H	-0.219637	1.65624	-1.47614
H	-0.185237	-1.03891	-2.06872
H	0.123177	-2.28975	0.367574
H	0.246174	-0.232963	2.20352
C	3.83792	-1.08387	-0.310048
C	3.41016	-0.0782177	-1.15078
N	3.09906	1.04179	-0.454137
C	3.33294	0.732139	0.813949
N	3.77994	-0.538464	0.953027
H	4.16845	-2.11466	-0.514379
H	3.32043	-0.140729	-2.24754
H	3.19371	1.39826	1.68063
H	4.03396	-1.01695	1.85179
