18
  This energy is -0.7638 and Call times are: 177380
C	-0.307996	-0.0744889	-1.08903
C	-0.859331	0.834516	-0.234566
C	-0.223524	0.621371	1.02656
C	0.660216	-0.399069	0.83142
O	0.621905	-0.836144	-0.454857
H	-0.48925	-0.277218	-2.15735
H	-1.63585	1.58032	-0.468844
H	-0.409069	1.16906	1.96449
H	1.36362	-0.89837	1.51783
C	5.29245	-0.618797	0.995297
C	4.40486	0.312994	0.500218
N	4.84523	0.833168	-0.671108
C	6.00161	0.226386	-0.901811
N	6.31527	-0.658301	0.0741721
H	5.26938	-1.23598	1.90748
H	3.45462	0.619259	0.967213
H	6.65934	0.39238	-1.77018
H	7.17399	-1.25973	0.120384
