18
  This energy is -1.5182 and Call times are: 155984
C	0.800175	0.332642	-0.731758
C	0.447974	-0.97626	-0.579761
C	-0.575669	-0.992594	0.416233
C	-0.758639	0.307769	0.784949
O	0.0733374	1.13075	0.0939172
H	1.54311	0.818698	-1.38525
H	0.866985	-1.84329	-1.11529
H	-1.10813	-1.8748	0.806474
H	-1.44	0.771098	1.51729
C	4.035	-0.934703	-0.263045
C	5.15835	-0.502692	-0.935784
N	5.67669	0.608303	-0.358269
C	4.87794	0.864549	0.668839
N	3.87286	-0.0373518	0.768779
H	3.36193	-1.78871	-0.439653
H	5.60412	-0.972739	-1.82752
H	4.98323	1.69979	1.37984
H	3.11457	-0.0505298	1.49409
