18
  This energy is -1.7556 and Call times are: 6553
C	-0.740504	0.122259	0.850358
C	-0.479833	-1.0876	0.27707
C	0.490449	-0.837065	-0.740723
C	0.73705	0.50378	-0.699545
O	-0.00609666	1.10537	0.266285
H	-1.41809	0.411998	1.67022
H	-0.926053	-2.05903	0.544118
H	0.946099	-1.57562	-1.41971
H	1.40952	1.14212	-1.29584
C	3.94069	-0.249046	0.634654
C	5.23529	-0.145399	1.09769
N	6.09171	0.154441	0.0911303
C	5.33129	0.236493	-0.992225
N	4.02655	0.00129041	-0.716696
H	2.9959	-0.475674	1.15384
H	5.56673	-0.281597	2.14002
H	5.67847	0.465904	-2.01255
H	3.23178	0.00829707	-1.40194
