18
  This energy is -1.3469 and Call times are: 30199
C	-1.10977	0.225465	-0.0630685
C	-0.589529	-0.985975	-0.412551
C	0.818989	-0.882901	-0.199076
C	1.03513	0.382426	0.262013
O	-0.131783	1.07333	0.35127
H	-2.145	0.604344	-0.0641194
H	-1.1422	-1.86408	-0.783464
H	1.57552	-1.6652	-0.371567
H	1.95972	0.904722	0.557991
C	4.71312	0.464203	1.07799
C	4.72738	1.1485	-0.118956
N	4.83928	0.297033	-1.16728
C	4.89424	-0.910899	-0.622763
N	4.82194	-0.863295	0.728569
H	4.63581	0.816216	2.11897
H	4.65892	2.24134	-0.244898
H	4.98739	-1.86429	-1.16738
H	4.84448	-1.68171	1.38504
