18
  This energy is -1.4826 and Call times are: 172908
C	0.512809	0.471607	0.894994
C	0.0259951	1.21206	-0.141886
C	-0.538119	0.275026	-1.06051
C	-0.34623	-0.955311	-0.503891
O	0.294123	-0.854061	0.690559
H	1.02874	0.764964	1.82398
H	0.0606668	2.30814	-0.249096
H	-1.02779	0.500146	-2.02157
H	-0.61521	-1.96574	-0.853078
C	4.00164	-0.443039	1.08588
C	3.79617	0.865954	0.704481
N	3.99675	1.02436	-0.626378
C	4.32541	-0.181776	-1.06892
N	4.34225	-1.10104	-0.0748123
H	3.9319	-0.936423	2.06835
H	3.50679	1.69892	1.36575
H	4.56365	-0.447528	-2.11144
H	4.57116	-2.12074	-0.170083
