18
  This energy is -0.9942 and Call times are: 68014
C	0.614634	0.198124	0.932402
C	-0.0614775	-0.970383	0.737879
C	-0.704996	-0.843209	-0.530911
C	-0.365322	0.391785	-0.999722
O	0.440201	1.04158	-0.118866
H	1.24713	0.546907	1.7652
H	-0.102893	-1.83513	1.41949
H	-1.34456	-1.58975	-1.02864
H	-0.628221	0.917518	-1.93232
C	4.89969	1.17328	-0.0921795
C	4.30522	0.420926	0.898634
N	4.50386	-0.903599	0.692027
C	5.21883	-0.972679	-0.42272
N	5.48335	0.252989	-0.933955
H	4.94711	2.26213	-0.252477
H	3.73655	0.810094	1.75887
H	5.5754	-1.89523	-0.90851
H	6.02908	0.462337	-1.80551
