18
  This energy is -1.0275 and Call times are: 83799
C	0.403571	0.562837	-0.89819
C	1.2096	0.121367	0.109678
C	0.347062	-0.53046	1.0431
C	-0.909907	-0.429771	0.523227
O	-0.894021	0.23495	-0.66206
H	0.628327	1.11495	-1.8255
H	2.30197	0.242571	0.187968
H	0.637711	-1.01512	1.98899
H	-1.88529	-0.784614	0.894671
C	4.94807	0.784869	-0.803256
C	5.47179	1.0547	0.443359
N	5.7697	-0.0891303	1.10624
C	5.43208	-1.06486	0.274015
N	4.9317	-0.589263	-0.890898
H	4.59756	1.45123	-1.6074
H	5.64003	2.05423	0.876357
H	5.53021	-2.14525	0.467283
H	4.59536	-1.15879	-1.70562
