18
  This energy is -0.6966 and Call times are: 86858
C	-0.199738	0.972065	-0.549176
C	-1.20475	0.157687	-0.116613
C	-0.56451	-0.949794	0.518757
C	0.775227	-0.714416	0.41837
O	1.01612	0.454923	-0.230959
H	-0.218585	1.93352	-1.08816
H	-2.28825	0.320509	-0.233257
H	-1.05291	-1.81637	0.992684
H	1.64721	-1.29391	0.76344
C	6.0102	0.600786	-0.720944
C	4.88091	-0.107682	-1.07296
N	4.30386	-0.678137	0.0124402
C	5.07224	-0.324907	1.03393
N	6.11427	0.446649	0.643461
H	6.72337	1.18427	-1.32467
H	4.47217	-0.217441	-2.09067
H	4.91759	-0.603633	2.08874
H	6.85947	0.850496	1.2622
