18
  This energy is -0.9329 and Call times are: 18352
C	-0.895652	0.683579	0.130109
C	-0.187721	0.19752	1.1898
C	0.847638	-0.611781	0.630177
C	0.681	-0.548832	-0.722096
O	-0.379003	0.237918	-1.04525
H	-1.77506	1.34649	0.0806443
H	-0.375748	0.389613	2.25837
H	1.62197	-1.17193	1.17858
H	1.24219	-1.01198	-1.55023
C	7.55436	0.89018	0.153653
C	6.32341	0.735448	0.755289
N	5.72096	-0.408221	0.348365
C	6.57492	-0.960889	-0.502479
N	7.69575	-0.216272	-0.653788
H	8.31439	1.68292	0.240074
H	5.8592	1.42854	1.47569
H	6.4295	-1.91015	-1.04283
H	8.51614	-0.439321	-1.26898
