18
  This energy is -0.6729 and Call times are: 50441
C	1.11154	0.20647	-0.0908706
C	0.609008	-0.719146	0.775775
C	-0.808279	-0.689442	0.601036
C	-1.04672	0.251703	-0.356966
O	0.114445	0.808979	-0.79073
H	2.14559	0.525416	-0.301254
H	1.17917	-1.35868	1.4686
H	-1.55548	-1.30137	1.13144
H	-1.98468	0.61198	-0.810482
C	6.13244	-0.748192	0.898756
C	5.08018	0.118414	0.691656
N	5.25322	0.834064	-0.446067
C	6.40843	0.41303	-0.942889
N	6.97759	-0.540845	-0.16844
H	6.33295	-1.47358	1.70321
H	4.19922	0.240103	1.34278
H	6.88392	0.769544	-1.87081
H	7.88904	-1.02938	-0.346943
