18
  This energy is -0.5287 and Call times are: 60338
C	0.645434	-0.716182	0.597411
C	-0.701095	-0.886038	0.461833
C	-1.15279	0.200911	-0.347257
C	-0.0424177	0.939033	-0.634679
O	1.06473	0.393482	-0.0658038
H	1.40666	-1.30719	1.13267
H	-1.31472	-1.69555	0.888754
H	-2.18627	0.401715	-0.672379
H	0.0903094	1.86041	-1.22519
C	7.54306	-0.810776	-0.130297
C	6.35294	-0.735887	-0.822497
N	5.61778	0.327788	-0.416737
C	6.34904	0.910557	0.52361
N	7.51902	0.261772	0.732982
H	8.37757	-1.5275	-0.188977
H	6.01157	-1.4303	-1.60742
H	6.07533	1.81472	1.09089
H	8.26557	0.525537	1.42171
