18
  This energy is -0.9898 and Call times are: 211158
C	-0.604109	-0.943674	0.175876
C	-1.18964	0.272427	-0.0206576
C	-0.117106	1.19778	-0.203719
C	1.02916	0.465459	-0.102892
O	0.75049	-0.844368	0.128864
H	-1.03522	-1.94191	0.357329
H	-2.26859	0.495478	-0.0352537
H	-0.199142	2.28094	-0.38847
H	2.09038	0.754759	-0.176151
C	5.11221	-1.11199	-0.368752
C	5.09227	-0.671423	0.937635
N	4.94825	0.674767	0.997163
C	4.87911	1.06784	-0.267486
N	4.97317	0.0275589	-1.1292
H	5.21218	-2.1221	-0.796808
H	5.17921	-1.30079	1.8383
H	4.75971	2.10547	-0.61863
H	4.94546	0.0792326	-2.17697
