18
  This energy is -0.7419 and Call times are: 114477
C	0.833702	0.53298	0.554324
C	0.956486	0.138485	-0.74555
C	-0.282442	-0.487057	-1.083
C	-1.05295	-0.4196	0.0404505
O	-0.387117	0.200192	1.05017
H	1.53311	1.05221	1.22995
H	1.8317	0.274358	-1.40101
H	-0.5588	-0.932621	-2.05212
H	-2.07738	-0.770749	0.246551
C	4.93576	-0.151997	0.080826
C	5.65355	0.152508	-1.05636
N	6.97746	0.255064	-0.785704
C	7.08059	0.0150929	0.51445
N	5.87719	-0.235897	1.08226
H	3.85761	-0.309667	0.242915
H	5.23987	0.300045	-2.06728
H	8.01327	0.0105515	1.10124
H	5.69586	-0.453037	2.09282
