18
  This energy is -1.7791 and Call times are: 41764
C	0.153481	-0.492521	1.01008
C	0.459944	-1.11895	-0.16211
C	0.13194	-0.192063	-1.19816
C	-0.346004	0.918957	-0.567626
O	-0.33993	0.752944	0.781231
H	0.23897	-0.821273	2.05883
H	0.875312	-2.13211	-0.284878
H	0.242432	-0.343684	-2.28393
H	-0.7169	1.87988	-0.960445
C	3.79787	-0.771719	0.544566
C	5.01262	-1.03586	-0.0518793
N	5.55034	0.0884173	-0.5842
C	4.67251	1.04639	-0.319
N	3.59855	0.578241	0.359992
H	3.08492	-1.42701	1.06978
H	5.5107	-2.01752	-0.107648
H	4.7665	2.10798	-0.599042
H	2.7716	1.13715	0.684081
