18
  This energy is -0.9532 and Call times are: 105909
C	0.753785	0.355681	-0.76922
C	-0.0285236	-0.743926	-0.967289
C	-0.834232	-0.866977	0.20566
C	-0.473155	0.168298	1.01696
O	0.495497	0.925173	0.437419
H	1.52233	0.829678	-1.40161
H	-0.0373318	-1.40235	-1.85075
H	-1.59194	-1.63977	0.412447
H	-0.825676	0.471082	2.01661
C	6.08318	0.243993	0.599095
C	5.76419	0.665119	-0.674499
N	4.55042	0.197084	-1.05425
C	4.11806	-0.511703	-0.0201714
N	5.00643	-0.514047	1.00178
H	6.97062	0.424086	1.22644
H	6.3881	1.29829	-1.32618
H	3.15836	-1.04964	0.0417019
H	4.89599	-1.00061	1.92499
