18
  This energy is -1.0196 and Call times are: 190025
C	0.479929	0.933505	0.429694
C	-0.520612	0.264897	1.07177
C	-0.856733	-0.838593	0.229476
C	-0.0319191	-0.746898	-0.85295
O	0.791036	0.329484	-0.747329
H	1.04585	1.83952	0.701946
H	-0.976255	0.522889	2.04126
H	-1.6248	-1.60629	0.416072
H	0.0663203	-1.37628	-1.75266
C	4.02224	-0.347767	-0.702632
C	4.75348	-1.13637	0.160232
N	5.68824	-0.406464	0.815956
C	5.53747	0.830251	0.361613
N	4.54553	0.917483	-0.556013
H	3.19414	-0.589345	-1.38778
H	4.62333	-2.21893	0.321389
H	6.12676	1.70985	0.66704
H	4.23437	1.78388	-1.0598
