18
  This energy is -0.4911 and Call times are: 67324
C	-0.975488	-0.556211	0.159539
C	-0.917692	0.802727	0.0579506
C	0.461022	1.12209	-0.135102
C	1.12403	-0.0698767	-0.134444
O	0.262275	-1.10546	0.0443093
H	-1.82456	-1.24247	0.312447
H	-1.76131	1.50936	0.113399
H	0.898909	2.12558	-0.259094
H	2.19331	-0.311769	-0.250149
C	7.10554	0.781067	-0.526531
C	7.40569	-0.528801	-0.217818
N	6.35826	-1.14079	0.386228
C	5.41192	-0.21411	0.451999
N	5.8138	0.96213	-0.0851597
H	7.69994	1.57083	-1.01285
H	8.35925	-1.04324	-0.420114
H	4.40622	-0.343505	0.883338
H	5.24899	1.844	-0.152566
