18
  This energy is -0.9738 and Call times are: 170400
C	-0.404138	-0.289658	1.0194
C	0.915992	-0.0207752	0.806483
C	1.03091	0.300007	-0.580604
C	-0.229133	0.198832	-1.09287
O	-1.11815	-0.160368	-0.129727
H	-0.95349	-0.580149	1.92994
H	1.72745	-0.0458163	1.55147
H	1.94919	0.57313	-1.1249
H	-0.618583	0.354677	-2.11233
C	4.84802	0.809294	-0.0653032
C	4.98086	-0.177243	0.888764
N	6.08054	-0.934946	0.658323
C	6.62783	-0.420425	-0.434548
N	5.92196	0.633243	-0.909017
H	4.09052	1.59786	-0.199093
H	4.30292	-0.355871	1.73926
H	7.5455	-0.776598	-0.929779
H	6.14943	1.20679	-1.75787
