18
  This energy is -1.4566 and Call times are: 198829
C	0.768519	-0.649847	0.522951
C	0.120366	-1.05158	-0.607924
C	-0.753699	0.0218511	-0.959869
C	-0.562515	0.984789	-0.0129937
O	0.363736	0.591396	0.900414
H	1.5293	-1.14837	1.1458
H	0.245241	-2.00789	-1.14081
H	-1.44126	0.0632904	-1.81989
H	-1.01791	1.97985	0.120155
C	5.15759	-0.64336	-0.972803
C	6.01998	0.300244	-0.456043
N	5.52082	0.84946	0.677851
C	4.35321	0.248859	0.86382
N	4.08876	-0.659733	-0.104744
H	5.22654	-1.28303	-1.86701
H	6.99341	0.594597	-0.881056
H	3.65201	0.436527	1.69287
H	3.23264	-1.26193	-0.180079
