18
  This energy is -1.0051 and Call times are: 193591
C	0.481257	0.303292	-0.981227
C	0.655132	-0.933951	-0.43408
C	-0.096299	-0.933416	0.780609
C	-0.663028	0.304108	0.868511
O	-0.320949	1.07247	-0.199018
H	0.869293	0.753143	-1.90984
H	1.25261	-1.76373	-0.844665
H	-0.197274	-1.7627	1.49907
H	-1.32053	0.754704	1.63002
C	4.24207	-0.37272	0.356302
C	5.37699	-0.243016	1.12849
N	6.41907	0.214194	0.392599
C	5.93247	0.367548	-0.831466
N	4.62399	0.0268647	-0.90491
H	3.22364	-0.709848	0.606679
H	5.46257	-0.471147	2.20343
H	6.49078	0.726109	-1.71122
H	4.01622	0.0606756	-1.75974
