18
  This energy is -0.6821 and Call times are: 25781
C	0.94884	0.3143	0.536022
C	0.029539	1.21704	0.0884542
C	-1.0077	0.448495	-0.522769
C	-0.630673	-0.85605	-0.394753
O	0.561775	-0.956551	0.249435
H	1.90628	0.447417	1.06596
H	0.0770675	2.3141	0.179583
H	-1.92427	0.831192	-0.999767
H	-1.11644	-1.79229	-0.715267
C	6.23566	-0.698816	0.596283
C	6.03562	-0.679746	-0.767815
N	5.11453	0.252209	-1.11361
C	4.74457	0.809182	0.0316107
N	5.39207	0.270242	1.09174
H	6.89658	-1.31292	1.22842
H	6.5394	-1.32175	-1.50869
H	4.00332	1.61574	0.151004
H	5.27398	0.539323	2.09917
