18
  This energy is -1.9681 and Call times are: 14292
C	-0.342452	0.600583	0.899126
C	-0.132393	1.16978	-0.322457
C	0.284814	0.108052	-1.18199
C	0.292874	-1.01622	-0.409774
O	-0.0875385	-0.733883	0.864032
H	-0.669451	1.03114	1.85982
H	-0.258578	2.23086	-0.591308
H	0.546419	0.182265	-2.24977
H	0.546376	-2.06295	-0.645027
C	4.46395	-0.875277	-0.697513
C	4.72537	-0.726224	0.648066
N	4.14952	0.399328	1.13596
C	3.5332	0.946457	0.0970076
N	3.69303	0.215682	-1.03171
H	4.762	-1.65449	-1.4169
H	5.31918	-1.41067	1.27559
H	2.95055	1.88168	0.107203
H	3.30385	0.43783	-1.98063
