18
  This energy is -1.4226 and Call times are: 176327
C	0.294591	-0.18799	-1.07902
C	-0.321926	0.961316	-0.679796
C	-0.527413	0.826367	0.727215
C	-0.0183256	-0.393491	1.06359
O	0.487792	-1.0267	-0.0272332
H	0.642324	-0.525117	-2.06931
H	-0.603727	1.81817	-1.31264
H	-1.00021	1.55779	1.40218
H	0.0434937	-0.918387	2.03102
C	3.80941	0.603914	0.197769
C	3.92699	-0.758803	0.0236415
N	5.21787	-1.11531	-0.183845
C	5.89853	0.021923	-0.138609
N	5.09424	1.08723	0.0890585
H	2.93164	1.24263	0.3851
H	3.10352	-1.49114	0.0440061
H	6.98758	0.131557	-0.265767
H	5.39256	2.09026	0.167767
