18
  This energy is -1.1134 and Call times are: 14031
C	-0.681021	-0.899477	-0.116415
C	0.116511	-0.451347	-1.1281
C	0.812502	0.68095	-0.60501
C	0.37884	0.824794	0.680144
O	-0.53355	-0.131865	0.995356
H	-1.38921	-1.74257	-0.0624736
H	0.205744	-0.875582	-2.14109
H	1.54865	1.30918	-1.1318
H	0.639055	1.55718	1.46191
C	4.25081	-0.155509	-0.894218
C	4.37917	-0.949851	0.225464
N	5.34232	-0.47618	1.0528
C	5.8097	0.607893	0.448673
N	5.18385	0.843617	-0.728755
H	3.58378	-0.228095	-1.76791
H	3.79407	-1.85626	0.45116
H	6.60973	1.26588	0.824473
H	5.37328	1.63643	-1.38968
