18
  This energy is -0.6709 and Call times are: 21014
C	-1.02401	-0.204414	0.442738
C	0.120401	-0.711917	0.984157
C	1.18621	-0.240097	0.158591
C	0.599009	0.514077	-0.814441
O	-0.750411	0.546761	-0.656303
H	-2.08052	-0.303128	0.741567
H	0.205502	-1.3541	1.87548
H	2.26197	-0.443732	0.282552
H	1.02547	1.07185	-1.66431
C	6.68343	-0.872475	-0.100591
C	6.51387	0.1908	-0.961894
N	5.51848	1.00775	-0.539634
C	5.07223	0.453397	0.579371
N	5.74241	-0.682404	0.886602
H	7.38378	-1.72258	-0.119666
H	7.09193	0.383106	-1.88043
H	4.2568	0.837545	1.2132
H	5.57675	-1.30047	1.71835
