18
  This energy is -0.8769 and Call times are: 144243
C	-0.240768	0.444115	1.01548
C	1.02382	0.0768112	0.660132
C	0.923988	-0.43085	-0.671195
C	-0.392798	-0.328956	-1.01188
O	-1.11867	0.203332	0.00635358
H	-0.640931	0.882654	1.94435
H	1.93549	0.155471	1.27395
H	1.74286	-0.824058	-1.29484
H	-0.931872	-0.596777	-1.93542
C	6.1839	-0.401171	-0.994987
C	6.597	-0.669414	0.292856
N	5.80951	-0.0413101	1.19943
C	4.9113	0.614099	0.476742
N	5.09463	0.429047	-0.852068
H	6.57493	-0.731311	-1.97051
H	7.44915	-1.30491	0.584127
H	4.09736	1.24441	0.869732
H	4.51705	0.839758	-1.626
