18
  This energy is -0.936 and Call times are: 111821
C	0.502246	0.322427	-0.964464
C	0.659621	-0.927358	-0.441355
C	-0.116105	-0.949852	0.757753
C	-0.679036	0.288174	0.861549
O	-0.312152	1.07812	-0.181714
H	0.910877	0.790672	-1.87497
H	1.26158	-1.75081	-0.858084
H	-0.235175	-1.79421	1.45559
H	-1.34975	0.725123	1.61948
C	4.3837	0.220756	-0.55091
C	5.25614	1.14775	-0.0211267
N	6.32984	0.542241	0.54194
C	6.12427	-0.755466	0.362151
N	4.96429	-1.00074	-0.291968
H	3.42283	0.339894	-1.07634
H	5.13011	2.24264	-0.035088
H	6.79111	-1.56932	0.689563
H	4.58035	-1.94207	-0.552273
