18
  This energy is -1.174 and Call times are: 106582
C	-0.372188	-0.421925	0.984813
C	-0.478228	-1.10685	-0.189925
C	0.0928964	-0.260618	-1.18884
C	0.497525	0.866722	-0.536341
O	0.221304	0.785363	0.791851
H	-0.676617	-0.680952	2.01218
H	-0.914832	-2.1076	-0.338168
H	0.187149	-0.4748	-2.26556
H	0.987761	1.78514	-0.898864
C	3.81118	-0.306126	-0.708086
C	4.87626	0.510979	-1.0229
N	5.71455	0.649564	0.032837
C	5.17159	-0.0787966	0.99892
N	4.02259	-0.675069	0.601638
H	2.94661	-0.640029	-1.30353
H	5.05484	1.003	-1.99288
H	5.57379	-0.210073	2.01638
H	3.40957	-1.29946	1.18095
