18
  This energy is -0.9824 and Call times are: 34311
C	1.08213	-0.0327412	-0.338132
C	0.701917	0.540576	0.839629
C	-0.716245	0.385721	0.91
C	-1.07746	-0.268556	-0.230971
O	0.00822879	-0.531991	-1.00485
H	2.0722	-0.148339	-0.808926
H	1.35464	1.02403	1.58416
H	-1.3817	0.72524	1.71994
H	-2.06063	-0.59962	-0.603851
C	4.78169	-0.754013	-0.800984
C	4.90572	-0.97158	0.554901
N	5.42604	0.113395	1.17829
C	5.62404	1.00068	0.212812
N	5.25128	0.525225	-0.99904
H	4.40506	-1.39752	-1.6119
H	4.6291	-1.89198	1.09452
H	6.03936	2.01363	0.337947
H	5.30899	1.03413	-1.91498
