18
  This energy is -1.0005 and Call times are: 9556
C	-0.162221	0.853965	-0.728581
C	-0.430455	0.96959	0.603731
C	-0.103375	-0.295879	1.17969
C	0.33586	-1.0731	0.148487
O	0.30659	-0.386925	-1.02425
H	-0.261064	1.57192	-1.55926
H	-0.819608	1.85699	1.1283
H	-0.188508	-0.584721	2.2396
H	0.692117	-2.11592	0.119196
C	4.65591	-0.221593	-1.01978
C	4.11035	-0.302748	0.243917
N	5.02283	0.0218503	1.19183
C	6.13025	0.303306	0.518749
N	5.96021	0.171245	-0.818127
H	4.22273	-0.409328	-2.0151
H	3.07469	-0.5897	0.488678
H	7.09401	0.611314	0.955229
H	6.68404	0.336603	-1.55973
