18
  This energy is -1.0357 and Call times are: 97029
C	0.981788	-0.130546	0.552677
C	0.623585	1.04883	-0.0313933
C	-0.658418	0.820909	-0.618452
C	-0.970457	-0.477626	-0.341301
O	0.0200048	-1.07383	0.373219
H	1.88208	-0.422776	1.11777
H	1.20392	1.98534	-0.0472392
H	-1.2697	1.54557	-1.17997
H	-1.85395	-1.08699	-0.59304
C	5.92394	-0.347503	1.07675
C	6.68042	0.373738	0.177478
N	5.99322	0.599846	-0.968446
C	4.8149	0.0210772	-0.780784
N	4.72389	-0.563909	0.437041
H	6.14721	-0.709986	2.09277
H	7.70975	0.735009	0.334975
H	3.98244	-0.00432412	-1.50231
H	3.89675	-1.08335	0.820817
