18
  This energy is -1.6371 and Call times are: 182671
C	0.981981	0.377122	-0.424138
C	0.825737	0.0719655	0.896029
C	-0.527635	-0.361489	1.03962
C	-1.07894	-0.282948	-0.205473
O	-0.171206	0.166279	-1.11168
H	1.85165	0.748481	-0.990723
H	1.58714	0.144799	1.68916
H	-1.02418	-0.691549	1.96623
H	-2.09236	-0.514698	-0.572262
C	4.59666	-0.3841	1.0703
C	5.54628	0.570016	0.771935
N	5.63694	0.767614	-0.565692
C	4.74695	-0.0607678	-1.09514
N	4.09377	-0.777247	-0.149834
H	4.25456	-0.797349	2.03245
H	6.16763	1.11937	1.49787
H	4.53301	-0.182868	-2.16918
H	3.34661	-1.49541	-0.314923
