18
  This energy is -1.7917 and Call times are: 101441
C	0.382494	-1.06187	-0.111968
C	-0.516086	-0.706886	0.850797
C	-0.748355	0.691103	0.672481
C	0.0287917	1.067	-0.38351
O	0.726193	0.00906478	-0.874849
H	0.848942	-2.03064	-0.355176
H	-0.969837	-1.36361	1.61035
H	-1.418	1.3338	1.26629
H	0.17206	2.04339	-0.874828
C	3.80592	0.131886	-1.1657
C	3.94082	-1.05399	-0.475305
N	4.02216	-0.835658	0.859695
C	3.93804	0.480664	0.996979
N	3.80655	1.10891	-0.195332
H	3.71264	0.34264	-2.24292
H	3.98091	-2.06322	-0.916551
H	3.96733	1.03686	1.94778
H	3.72133	2.14322	-0.35092
