18
  This energy is -1.3591 and Call times are: 197620
C	-0.106503	-0.940596	-0.624769
C	-1.02837	0.0642181	-0.65438
C	-0.551118	1.05953	0.252096
C	0.620265	0.575074	0.75562
O	0.907133	-0.645391	0.231039
H	-0.057713	-1.90397	-1.15841
H	-1.95183	0.100849	-1.25437
H	-1.03097	2.0213	0.494673
H	1.33311	0.996576	1.48325
C	3.83492	0.849827	-0.727739
C	4.21415	0.995128	0.589916
N	4.5779	-0.194401	1.12771
C	4.42491	-1.07431	0.147409
N	3.9789	-0.493944	-0.991819
H	3.48447	1.58312	-1.47138
H	4.23182	1.93696	1.16218
H	4.62501	-2.15612	0.209716
H	3.78056	-0.975812	-1.90271
