18
  This energy is -0.6711 and Call times are: 199982
C	-0.402182	1.03843	-0.215221
C	-1.21938	-0.0207623	0.0506276
C	-0.354905	-1.13724	0.26572
C	0.914252	-0.661761	0.112323
O	0.904144	0.665066	-0.181684
H	-0.624038	2.09436	-0.441133
H	-2.32049	-0.0162988	0.0911935
H	-0.652483	-2.17054	0.506212
H	1.89523	-1.1593	0.185691
C	6.15606	-0.794916	-0.142712
C	5.02858	-0.644084	-0.921938
N	4.25508	0.372973	-0.47049
C	4.90025	0.851276	0.584789
N	6.05218	0.180708	0.823495
H	6.99693	-1.50383	-0.205293
H	4.75938	-1.2509	-1.8018
H	4.57378	1.69137	1.21874
H	6.7359	0.368268	1.59719
