18
  This energy is -3.2773 and Call times are: 39915
C	-0.0815219	-1.10903	0.223156
C	-0.134763	-0.613606	-1.04653
C	0.000898247	0.802591	-0.919639
C	0.125064	1.04756	0.41638
O	0.0768812	-0.108538	1.12921
H	-0.143627	-2.13985	0.608924
H	-0.257277	-1.18783	-1.97892
H	0.00447899	1.54472	-1.73409
H	0.251718	1.98725	0.978698
C	3.58792	-0.0715267	1.00267
C	4.96013	-0.0828056	0.868233
N	5.32443	0.0169957	-0.433242
C	4.18256	0.0899112	-1.10366
N	3.10684	0.0406407	-0.282698
H	2.94129	-0.133322	1.89238
H	5.69383	-0.161167	1.68701
H	4.0768	0.180394	-2.19675
H	2.09845	0.0803257	-0.570506
