18
  This energy is -0.543 and Call times are: 99864
C	-0.575929	0.765921	-0.606689
C	-1.18689	-0.0773283	0.274239
C	-0.145818	-0.878991	0.834266
C	1.00942	-0.454858	0.246125
O	0.765399	0.549233	-0.636636
H	-0.978886	1.55421	-1.26356
H	-2.26274	-0.129581	0.506396
H	-0.25401	-1.67638	1.58696
H	2.05501	-0.782006	0.368474
C	6.31829	-0.777102	-0.51504
C	4.97193	-0.606758	-0.75885
N	4.4564	0.379873	0.0140013
C	5.47905	0.819934	0.734527
N	6.62389	0.154199	0.45216
H	7.05595	-1.47197	-0.946957
H	4.36329	-1.17809	-1.47856
H	5.445	1.62748	1.48348
H	7.565	0.316546	0.887143
