18
  This energy is -1.3166 and Call times are: 156522
C	0.471891	-1.01757	-0.168146
C	0.893543	0.10072	-0.825424
C	0.0683247	1.16648	-0.352898
C	-0.784758	0.605385	0.55142
O	-0.552419	-0.727779	0.676734
H	0.814089	-2.06455	-0.212788
H	1.70435	0.168335	-1.56847
H	0.112095	2.22472	-0.656737
H	-1.59077	1.04131	1.16425
C	4.37166	1.05598	0.294158
C	4.99275	0.152687	1.13049
N	5.36079	-0.964001	0.456653
C	4.96952	-0.754271	-0.792963
N	4.36777	0.449571	-0.942145
H	3.94635	2.05411	0.484913
H	5.18189	0.286715	2.20804
H	5.09875	-1.44907	-1.63841
H	3.9734	0.845552	-1.83036
