18
  This energy is -1.1113 and Call times are: 38729
C	-0.895735	-0.695407	0.0216445
C	-0.107108	-0.485891	1.1146
C	0.899964	0.437719	0.698824
C	0.637843	0.711075	-0.611497
O	-0.455353	0.0276666	-1.04148
H	-1.78751	-1.32635	-0.126319
H	-0.222933	-0.936536	2.1134
H	1.72021	0.845563	1.31116
H	1.1473	1.36525	-1.33797
C	5.99158	-0.0342995	0.951645
C	6.31331	0.478864	-0.287025
N	5.27743	0.353809	-1.15179
C	4.31673	-0.234697	-0.452265
N	4.6984	-0.489273	0.821746
H	6.57201	-0.105538	1.88523
H	7.27431	0.9371	-0.572229
H	3.31444	-0.502032	-0.823987
H	4.11951	-0.946185	1.56832
