18
  This energy is -1.054 and Call times are: 62895
C	-0.717828	0.712667	-0.51306
C	-0.471498	-0.542533	-0.986527
C	0.47131	-1.12281	-0.0840241
C	0.717889	-0.17098	0.861279
O	0.000107825	0.956437	0.614839
H	-1.3737	1.51788	-0.882822
H	-0.909748	-1.01264	-1.88153
H	0.909394	-2.13227	-0.140158
H	1.37385	-0.173162	1.74726
C	6.06468	0.32121	-0.385179
C	4.84687	0.684317	-0.920187
N	3.82337	0.131947	-0.224606
C	4.40402	-0.571162	0.73826
N	5.75454	-0.489054	0.684153
H	7.09568	0.573647	-0.679898
H	4.68841	1.33496	-1.79563
H	3.88748	-1.16472	1.5097
H	6.43562	-0.954038	1.33314
