18
  This energy is -0.4758 and Call times are: 104225
C	-0.992125	-0.486366	0.256003
C	0.0577335	-1.19265	-0.25324
C	1.11109	-0.246481	-0.441146
C	0.61194	0.954475	-0.03014
O	-0.671279	0.826524	0.3988
H	-2.00675	-0.797644	0.554146
H	0.087412	-2.27169	-0.474378
H	2.11986	-0.446053	-0.83694
H	1.06296	1.9597	0.00655125
C	6.04348	1.08278	0.0653686
C	5.35836	-0.110696	0.151277
N	6.19979	-1.16661	0.0348598
C	7.40233	-0.630237	-0.122671
N	7.36092	0.723183	-0.111312
H	5.69826	2.12768	0.115777
H	4.27199	-0.228794	0.295175
H	8.34722	-1.18254	-0.250662
H	8.17694	1.3745	-0.216965
