18
  This energy is -0.5754 and Call times are: 65552
C	-0.749444	-0.0988925	-0.84555
C	-1.11599	0.266628	0.416357
C	0.0878983	0.279794	1.18485
C	1.08385	-0.078843	0.324723
O	0.590456	-0.313821	-0.919607
H	-1.33912	-0.239795	-1.76625
H	-2.13221	0.503245	0.770502
H	0.190695	0.528648	2.25331
H	2.16928	-0.201427	0.473313
C	6.73201	-0.861132	0.494077
C	7.07845	-0.108139	-0.607794
N	6.11433	0.797043	-0.903792
C	5.17334	0.606324	0.0109708
N	5.49878	-0.382683	0.876733
H	7.25822	-1.6764	1.01558
H	8.00681	-0.20178	-1.19451
H	4.22597	1.16311	0.0928749
H	4.92163	-0.720628	1.6854
