18
  This energy is -0.7188 and Call times are: 168795
C	-0.790043	0.810411	-0.0739433
C	-0.16457	0.297701	-1.17225
C	0.748349	-0.684122	-0.679587
C	0.600157	-0.684719	0.676293
O	-0.335276	0.221929	1.06355
H	-1.56591	1.58663	0.0297881
H	-0.329514	0.582342	-2.22386
H	1.43196	-1.31208	-1.27326
H	1.09452	-1.27461	1.46552
C	5.08921	0.247994	0.904637
C	4.73811	-0.363953	-0.280012
N	5.80957	-0.492891	-1.09968
C	6.82153	0.0370506	-0.426086
N	6.43836	0.497829	0.788185
H	4.49431	0.51448	1.79268
H	3.73087	-0.714742	-0.557979
H	7.86391	0.113442	-0.775153
H	7.05209	0.957768	1.50446
