18
  This energy is -1.061 and Call times are: 36412
C	-0.456701	0.906263	-0.506471
C	-0.914018	-0.360125	-0.724409
C	-0.0980314	-1.21412	0.0786946
C	0.785891	-0.394207	0.716503
O	0.58124	0.904119	0.370847
H	-0.780378	1.87994	-0.909509
H	-1.74282	-0.662555	-1.38449
H	-0.168384	-2.31033	0.165089
H	1.59758	-0.60878	1.43091
C	5.48669	-0.54425	-0.78571
C	5.05871	-1.04408	0.42596
N	4.27938	-0.146642	1.07693
C	4.2241	0.905935	0.272161
N	4.93595	0.715417	-0.863869
H	6.12297	-0.981232	-1.57167
H	5.29829	-2.03618	0.842124
H	3.67675	1.84249	0.46583
H	5.04714	1.39735	-1.65371
