18
  This energy is -0.9474 and Call times are: 36508
C	0.563624	0.715619	-0.675736
C	-0.362462	1.14263	0.230025
C	-0.844828	-0.0340341	0.880339
C	-0.170928	-1.07621	0.314567
O	0.69337	-0.636687	-0.637704
H	1.19028	1.26694	-1.39587
H	-0.674594	2.18194	0.421047
H	-1.60532	-0.088416	1.67582
H	-0.215432	-2.1621	0.499281
C	4.9447	0.387548	1.0184
C	4.02861	-0.628925	0.848958
N	3.73697	-0.81036	-0.46197
C	4.46934	0.0901314	-1.10335
N	5.21488	0.836999	-0.254857
H	5.40802	0.808822	1.92471
H	3.57288	-1.23464	1.64913
H	4.49772	0.24556	-2.19389
H	5.87329	1.61098	-0.516988
