18
  This energy is -0.7436 and Call times are: 177572
C	0.61198	0.954184	-0.0376227
C	0.243628	0.368557	1.13785
C	-0.504419	-0.7938	0.77803
C	-0.527152	-0.815864	-0.585557
O	0.149777	0.244225	-1.10033
H	1.19527	1.86536	-0.249216
H	0.47543	0.719854	2.15616
H	-0.967922	-1.52291	1.46189
H	-0.984692	-1.52199	-1.2978
C	4.88821	-0.922271	-0.166912
C	4.51149	0.371731	0.12427
N	5.59284	1.17861	0.251294
C	6.63643	0.38818	0.0397188
N	6.26391	-0.888177	-0.216658
H	4.29448	-1.83454	-0.336586
H	3.47881	0.737591	0.244976
H	7.69533	0.692365	0.0606188
H	6.90156	-1.69758	-0.415452
