18
  This energy is -0.8078 and Call times are: 205030
C	-0.461815	-1.02304	-0.162833
C	-0.819647	0.0659346	-0.902064
C	-0.031345	1.14986	-0.40831
C	0.738618	0.627577	0.58906
O	0.488742	-0.698257	0.752574
H	-0.805063	-2.07026	-0.190406
H	-1.56404	0.102272	-1.71364
H	-0.0430189	2.19371	-0.760942
H	1.49221	1.08854	1.2485
C	5.1398	0.452719	0.984051
C	4.45068	-0.114175	-0.0670825
N	5.29838	-0.533025	-1.0379
C	6.50879	-0.227137	-0.590731
N	6.46638	0.368977	0.624358
H	4.79169	0.895051	1.93099
H	3.357	-0.228465	-0.142364
H	7.46038	-0.417378	-1.11276
H	7.28758	0.703609	1.18553
