18
  This energy is -1.3726 and Call times are: 110185
C	-0.259049	-0.994603	0.479645
C	-0.0884867	0.145484	1.20867
C	0.223006	1.17064	0.264135
C	0.215294	0.566507	-0.958706
O	-0.0772573	-0.755874	-0.845863
H	-0.508188	-2.02512	0.781666
H	-0.173494	0.253704	2.30191
H	0.427529	2.23173	0.479426
H	0.399567	0.962388	-1.97092
C	5.30784	-0.173582	0.838066
C	5.18554	0.931666	0.0228279
N	4.14161	0.796203	-0.830626
C	3.61829	-0.388577	-0.545931
N	4.28596	-1.01257	0.453287
H	6.0258	-0.414417	1.63811
H	5.83184	1.82441	0.0351639
H	2.74597	-0.847652	-1.03842
H	4.06692	-1.95577	0.857819
