18
  This energy is -0.7546 and Call times are: 192299
C	-0.485036	-0.00787526	-1.02522
C	0.865178	0.0863984	-0.856674
C	1.08554	0.0645083	0.554383
C	-0.149475	-0.0412101	1.12355
O	-1.12033	-0.0866689	0.173611
H	-1.10866	-0.0290299	-1.93401
H	1.62933	0.163609	-1.64674
H	2.0545	0.121373	1.07588
H	-0.466491	-0.0928227	2.1781
C	6.37548	0.988419	-0.426666
C	6.83594	-0.298063	-0.611276
N	6.04397	-1.19627	0.0231732
C	5.0958	-0.46977	0.599188
N	5.25165	0.853449	0.357539
H	6.75533	1.95807	-0.785864
H	7.72542	-0.594238	-1.19089
H	4.26334	-0.855889	1.20923
H	4.63404	1.62883	0.701947
