18
  This energy is -1.03 and Call times are: 167194
C	0.658352	-0.195332	-0.902673
C	0.819274	0.898777	-0.104297
C	-0.181591	0.793788	0.909293
C	-0.865772	-0.35521	0.640831
O	-0.366234	-0.972074	-0.462325
H	1.20091	-0.530369	-1.80191
H	1.5677	1.69945	-0.21776
H	-0.363463	1.49688	1.73796
H	-1.71582	-0.83633	1.1519
C	6.76877	-0.113049	-1.16944
C	5.80083	-0.642445	-0.342409
N	6.03124	-0.314129	0.952053
C	7.13791	0.416167	0.928165
N	7.62119	0.566125	-0.327837
H	6.90672	-0.169674	-2.26091
H	4.94035	-1.25541	-0.656549
H	7.63739	0.865705	1.80147
H	8.48136	1.09836	-0.607295
