18
  This energy is -0.6881 and Call times are: 99708
C	0.533456	0.584808	-0.812297
C	-0.363579	1.16465	0.0359289
C	-0.812904	0.1218	0.902353
C	-0.15078	-1.00325	0.507101
O	0.675677	-0.738833	-0.538873
H	1.1297	1.00016	-1.64129
H	-0.677383	2.22079	0.0500707
H	-1.54435	0.208615	1.72183
H	-0.179725	-2.03893	0.883652
C	5.49119	1.06658	0.489067
C	4.34209	0.467981	0.0174807
N	4.6028	-0.764539	-0.481953
C	5.90868	-0.929934	-0.320815
N	6.48966	0.146259	0.260443
H	5.66332	2.04956	0.955613
H	3.32958	0.903346	0.0286563
H	6.49047	-1.81972	-0.610709
H	7.5069	0.258247	0.492697
