18
  This energy is -1.1212 and Call times are: 26102
C	-0.362415	-0.799889	0.717798
C	0.532934	-1.0626	-0.277043
C	0.737543	0.17709	-0.956326
C	-0.0508346	1.08792	-0.316619
O	-0.72966	0.508565	0.708348
H	-0.811074	-1.44885	1.48774
H	1.00222	-2.03211	-0.509245
H	1.39701	0.359864	-1.81992
H	-0.214802	2.16387	-0.49183
C	6.25573	0.20395	-0.0882552
C	5.60824	-0.99448	-0.301962
N	4.27232	-0.868722	-0.112201
C	4.09172	0.402889	0.217972
N	5.25736	1.09143	0.246156
H	7.32078	0.478882	-0.148472
H	6.08109	-1.94763	-0.589672
H	3.12688	0.882252	0.449328
H	5.37766	2.1077	0.478488
