18
  This energy is -0.9791 and Call times are: 163004
C	-0.992615	-0.419657	-0.353558
C	-0.78339	0.917579	-0.185035
C	0.566584	1.04874	0.262722
C	1.06314	-0.219928	0.328289
O	0.124516	-1.12929	-0.0446175
H	-1.87952	-0.984983	-0.683794
H	-1.5071	1.73011	-0.358617
H	1.09767	1.98318	0.505327
H	2.05459	-0.602762	0.621063
C	5.43093	0.365249	-1.06872
C	5.27214	-0.939656	-0.652608
N	4.88074	-0.994974	0.64364
C	4.79704	0.270799	1.03021
N	5.11895	1.12919	0.0336578
H	5.73376	0.790116	-2.03894
H	5.43297	-1.84221	-1.26447
H	4.50482	0.625156	2.03185
H	5.12898	2.17704	0.0900294
