18
  This energy is -1.5161 and Call times are: 53479
C	0.972374	0.138764	-0.567129
C	0.860016	0.404384	0.765986
C	-0.495025	0.111867	1.1101
C	-1.09109	-0.306685	-0.0431073
O	-0.209621	-0.296494	-1.07747
H	1.82708	0.2178	-1.25886
H	1.6519	0.769665	1.43947
H	-0.962637	0.205254	2.10343
H	-2.1218	-0.634658	-0.256032
C	4.52458	0.191771	1.14784
C	4.74303	-1.02439	0.53597
N	4.90572	-0.876364	-0.80124
C	4.78866	0.426666	-1.01811
N	4.55822	1.11386	0.125682
H	4.35329	0.457449	2.20312
H	4.78615	-2.00599	1.03542
H	4.8631	0.930906	-1.99506
H	4.42967	2.15139	0.216528
