18
  This energy is -1.1027 and Call times are: 148965
C	0.0574106	-1.11976	0.17098
C	-0.0258719	-0.227225	1.19899
C	-0.0788944	1.06457	0.591901
C	-0.023333	0.847398	-0.753506
O	0.0601691	-0.480906	-1.02855
H	0.119558	-2.22035	0.16155
H	-0.0477691	-0.455611	2.2767
H	-0.150075	2.0369	1.10532
H	-0.0349616	1.54422	-1.60765
C	4.32212	0.981877	0.52746
C	3.72084	-0.258525	0.559371
N	4.42872	-1.16331	-0.159501
C	5.46521	-0.486785	-0.63557
N	5.44615	0.810945	-0.249404
H	4.03911	1.9421	0.987266
H	2.78894	-0.516823	1.08822
H	6.26781	-0.892857	-1.2721
H	6.15296	1.54671	-0.495001
