18
  This energy is -0.9129 and Call times are: 203058
C	-0.864541	-0.106066	0.726444
C	0.386806	0.258446	1.12848
C	1.18626	0.282255	-0.0549141
C	0.352869	-0.0698086	-1.07564
O	-0.903441	-0.310535	-0.616572
H	-1.79999	-0.252993	1.2909
H	0.714061	0.487574	2.15537
H	2.2566	0.533513	-0.127985
H	0.529781	-0.183608	-2.15777
C	5.7784	-0.136491	1.06658
C	5.51253	1.05476	0.425197
N	4.95882	0.840818	-0.79306
C	4.88149	-0.478143	-0.907015
N	5.36303	-1.11228	0.188235
H	6.21909	-0.351713	2.05299
H	5.71031	2.06478	0.819656
H	4.48081	-1.03217	-1.77116
H	5.41086	-2.14963	0.339491
