44
  This energy is -10.0089 and Call times are: 67693
C	-1.93202	-2.8451	-0.534188
C	-0.88152	-1.88698	-0.945994
O	-0.143106	-2.12514	-1.89174
H	-1.89123	-3.74014	-1.19231
H	-2.93449	-2.37678	-0.626193
H	-1.76833	-3.16409	0.516785
N	-0.789247	-0.763722	-0.230344
C	0.210703	0.24354	-0.483494
C	0.506164	0.955593	0.823119
O	-0.184426	0.754239	1.82024
H	-1.37056	-0.602599	0.562111
H	1.12731	-0.235687	-0.80413
C	-0.276523	1.24886	-1.54988
H	-1.21112	1.74848	-1.21679
H	0.490152	2.02152	-1.76372
H	-0.494255	0.704795	-2.49483
N	1.55247	1.80445	0.849926
C	1.91267	2.52256	2.05023
H	2.10198	1.95116	0.0340913
H	2.79963	3.16925	1.87039
H	2.15732	1.81325	2.87382
H	1.07066	3.16835	2.38953
C	2.4772	-2.60346	1.27969
C	3.70958	-1.78384	1.25456
O	4.5468	-1.87227	2.14206
H	2.47396	-3.23384	2.19536
H	2.43886	-3.26429	0.388296
H	1.58143	-1.94731	1.29195
N	3.84813	-0.952105	0.219473
C	4.97231	-0.0604163	0.0792723
C	4.51753	1.15384	-0.708333
O	3.41227	1.17771	-1.24642
H	3.13877	-0.861631	-0.473697
H	5.27764	0.286205	1.05868
C	6.14685	-0.76189	-0.637408
H	5.83716	-1.10836	-1.64641
H	7.02358	-0.089932	-0.739091
H	6.45785	-1.65172	-0.0476443
N	5.36272	2.20048	-0.787147
C	5.01381	3.401	-1.51047
H	6.25113	2.16405	-0.341658
H	5.83884	4.14522	-1.45853
H	4.0959	3.8649	-1.08208
H	4.81614	3.17061	-2.58238
