44
  This energy is 0.1024 and Call times are: 65072
C	2.82983	0.678057	1.90918
C	2.16126	0.0492799	0.747809
O	2.80928	-0.442591	-0.165725
H	3.9317	0.626337	1.771
H	2.5592	0.141925	2.84303
H	2.52791	1.7433	1.99401
N	0.826242	0.0540198	0.757394
C	0.0356812	-0.481759	-0.322659
C	-1.28189	0.269239	-0.362147
O	-1.59004	1.04817	0.537868
H	0.312863	0.494571	1.4883
H	0.541339	-0.295623	-1.26196
C	-0.208842	-1.99444	-0.129708
H	-0.736961	-2.18506	0.828828
H	-0.804798	-2.4216	-0.962112
H	0.768896	-2.52286	-0.0957469
N	-2.09113	0.0570537	-1.41862
C	-3.36219	0.731377	-1.54463
H	-1.82263	-0.573879	-2.13897
H	-3.879	0.424647	-2.48061
H	-3.22004	1.83614	-1.56868
H	-4.0239	0.487132	-0.682299
C	6.96968	1.02775	2.90399
C	6.07935	0.104011	2.16562
O	5.71765	-0.955599	2.65839
H	7.22396	0.582703	3.89046
H	6.46003	2.00024	3.06909
H	7.9071	1.19424	2.3325
N	5.70254	0.491885	0.944987
C	4.87297	-0.319308	0.0892205
C	5.20918	0.016229	-1.35159
O	5.94098	0.966327	-1.62269
H	6.03825	1.33819	0.541348
H	5.1154	-1.36355	0.24225
C	3.37575	-0.0642368	0.369387
H	3.12425	1.00483	0.202344
H	2.72663	-0.693205	-0.273707
H	3.15421	-0.308778	1.43121
N	4.68511	-0.767206	-2.31471
C	4.95409	-0.5278	-3.71346
H	4.09849	-1.53384	-2.07547
H	4.43374	-1.27859	-4.34811
H	6.04708	-0.591677	-3.9198
H	4.60498	0.486927	-4.01279
