44
  This energy is -1.7677 and Call times are: 71505
C	-1.06637	-2.92114	-1.56285
C	-0.465531	-1.56878	-1.5984
O	0.0839101	-1.14654	-2.60649
H	-0.906706	-3.41987	-2.54349
H	-2.15733	-2.85024	-1.36913
H	-0.588794	-3.53128	-0.767403
N	-0.556796	-0.8492	-0.477574
C	0.01727	0.46669	-0.345508
C	0.366765	0.685905	1.11441
O	0.00374141	-0.112901	1.97571
H	-0.97098	-1.2222	0.347767
H	0.941139	0.511545	-0.908611
C	-0.968418	1.55026	-0.834926
H	-1.91234	1.51155	-0.250498
H	-0.532719	2.56697	-0.751264
H	-1.21629	1.36546	-1.90299
N	1.09244	1.7777	1.42651
C	1.47697	2.06574	2.78862
H	1.3804	2.41029	0.715187
H	2.06935	3.0058	2.83961
H	2.09595	1.2384	3.20533
H	0.576974	2.18273	3.43474
C	5.0543	2.62219	-2.28842
C	5.62905	1.90329	-1.12911
O	6.73259	2.19334	-0.688116
H	5.77893	3.38751	-2.64204
H	4.11091	3.12889	-1.99515
H	4.84979	1.9112	-3.11652
N	4.88049	0.930925	-0.603225
C	5.32288	0.114777	0.499839
C	4.64828	-1.23936	0.386667
O	3.7536	-1.43057	-0.434729
H	4.00187	0.679164	-0.998828
H	6.39019	-0.0486903	0.417734
C	4.97918	0.779734	1.85074
H	3.88326	0.938046	1.93994
H	5.32708	0.167538	2.70789
H	5.47681	1.7724	1.9083
N	5.07089	-2.21919	1.20967
C	4.49162	-3.54172	1.17028
H	5.79886	-2.04646	1.86487
H	4.97333	-4.20461	1.92245
H	4.62525	-3.99922	0.163244
H	3.39987	-3.49928	1.38806
