44
  This energy is -4.9918 and Call times are: 70348
C	1.9035	-0.888439	-2.77489
C	0.606419	-0.600593	-2.12231
O	-0.416641	-0.466039	-2.77932
H	1.75909	-0.930805	-3.87636
H	2.2987	-1.86574	-2.42641
H	2.63644	-0.0882611	-2.53908
N	0.621959	-0.495994	-0.791452
C	-0.553061	-0.176685	-0.019488
C	-0.109649	0.537749	1.24326
O	1.08091	0.607767	1.54221
H	1.46985	-0.567476	-0.27392
H	-1.17209	0.512876	-0.579793
C	-1.34658	-1.45433	0.331482
H	-0.715255	-2.15756	0.915372
H	-2.26112	-1.22038	0.914072
H	-1.65395	-1.96493	-0.607225
N	-1.06401	1.09565	2.01395
C	-0.73624	1.80061	3.23124
H	-2.02167	1.03203	1.75336
H	-1.6567	2.18646	3.72225
H	-0.0653124	2.66381	3.01673
H	-0.213019	1.12628	3.94724
C	3.88078	0.134669	3.27529
C	4.8357	-0.345287	2.25112
O	5.86441	-0.926557	2.5678
H	4.27424	-0.107449	4.28644
H	2.89679	-0.362603	3.14399
H	3.75268	1.23465	3.19344
N	4.51092	-0.106045	0.978459
C	5.36025	-0.474511	-0.126723
C	5.10523	0.497068	-1.26363
O	4.17691	1.30136	-1.20845
H	3.6902	0.404396	0.738183
H	6.39666	-0.36295	0.166568
C	5.07859	-1.92392	-0.579632
H	4.01807	-2.03629	-0.890614
H	5.73598	-2.22425	-1.42115
H	5.264	-2.61656	0.270197
N	5.93504	0.449949	-2.32439
C	5.77321	1.33947	-3.45078
H	6.68303	-0.205017	-2.34898
H	6.55282	1.14566	-4.22012
H	5.85678	2.40227	-3.12714
H	4.77327	1.19957	-3.92161
