44
  This energy is -3.1546 and Call times are: 66768
C	1.98671	2.72784	-0.851208
C	0.666429	2.08702	-0.657954
O	-0.364136	2.74603	-0.66491
H	1.84869	3.82439	-0.971266
H	2.4777	2.32556	-1.76217
H	2.6352	2.54171	0.0307849
N	0.669677	0.764449	-0.475805
C	-0.532474	0.00680028	-0.232162
C	-0.164736	-1.21079	0.594765
O	1.01237	-1.49984	0.801106
H	1.5198	0.247506	-0.431831
H	-1.21697	0.602997	0.358304
C	-1.19399	-0.420594	-1.56068
H	-0.495919	-1.04107	-2.16213
H	-2.12816	-0.99291	-1.38657
H	-1.44728	0.485821	-2.1528
N	-1.17133	-1.95246	1.09748
C	-0.917635	-3.12573	1.90076
H	-2.11741	-1.70029	0.923094
H	-1.87285	-3.59791	2.21987
H	-0.336603	-2.85894	2.81318
H	-0.330194	-3.87692	1.32478
C	4.06586	-0.0999801	-3.28884
C	4.68551	-0.735297	-2.10412
O	4.86158	-1.9448	-2.05392
H	3.80682	-0.88432	-4.03286
H	4.77533	0.616299	-3.75397
H	3.1391	0.436342	-2.99463
N	5.03339	0.0811647	-1.10675
C	5.60726	-0.394163	0.127468
C	5.23102	0.578305	1.22943
O	4.68951	1.65017	0.965667
H	4.84626	1.05859	-1.14532
H	5.1696	-1.3521	0.379323
C	7.14269	-0.513865	0.0118783
H	7.59314	0.470838	-0.236118
H	7.59507	-0.892148	0.951442
H	7.39493	-1.22415	-0.805559
N	5.50386	0.220053	2.49956
C	5.17696	1.07876	3.61398
H	5.9387	-0.65312	2.69338
H	5.47948	0.607906	4.57523
H	4.08096	1.27566	3.64983
H	5.70078	2.05775	3.52271
