44
  This energy is 0.1018 and Call times are: 63710
C	-0.133844	2.13057	-2.74872
C	-0.735057	1.52344	-1.53997
O	-1.77563	1.95676	-1.06472
H	-0.760518	2.98694	-3.08006
H	-0.0844392	1.38311	-3.56824
H	0.888885	2.49973	-2.52324
N	-0.0797574	0.489848	-1.00644
C	-0.518092	-0.176858	0.194359
C	0.70266	-0.748459	0.890485
O	1.80099	-0.747284	0.337879
H	0.78761	0.174615	-1.38083
H	-0.961216	0.549137	0.864585
C	-1.52838	-1.29778	-0.134415
H	-1.07084	-2.04841	-0.813565
H	-1.88397	-1.80961	0.78325
H	-2.40965	-0.857824	-0.650318
N	0.538746	-1.24592	2.13213
C	1.64429	-1.8056	2.87424
H	-0.356894	-1.23431	2.5643
H	1.30774	-2.16081	3.87313
H	2.44279	-1.04323	3.02411
H	2.08877	-2.66801	2.32667
C	8.69972	-0.0274447	-1.24553
C	7.73415	-0.000474517	-0.123873
O	8.10018	-0.171888	1.03071
H	9.71738	-0.235118	-0.849189
H	8.70981	0.953528	-1.76547
H	8.42547	-0.825397	-1.96743
N	6.4568	0.217035	-0.445513
C	5.3966	0.228513	0.531417
C	4.11585	-0.206865	-0.155382
O	4.06947	-0.337818	-1.37702
H	6.16843	0.314018	-1.39382
H	5.6132	-0.50058	1.30222
C	5.22948	1.63475	1.1477
H	4.99685	2.3813	0.358649
H	4.42528	1.65334	1.91152
H	6.18097	1.9361	1.63779
N	3.04175	-0.450777	0.621046
C	1.78168	-0.874801	0.0566157
H	3.0999	-0.343233	1.60803
H	1.02295	-1.02399	0.856183
H	1.90197	-1.83478	-0.495887
H	1.39408	-0.112051	-0.656912
