44
  This energy is -2.374 and Call times are: 70424
C	-0.4824	2.32988	2.54
C	0.211448	1.15704	1.96194
O	1.23592	0.71644	2.46467
H	0.0846033	2.69284	3.42468
H	-1.50738	2.0484	2.86082
H	-0.541224	3.14735	1.79075
N	-0.340566	0.618641	0.872089
C	0.242392	-0.499004	0.172381
C	-0.159499	-0.404804	-1.28747
O	-0.995314	0.416915	-1.65883
H	-1.15194	1.0136	0.450734
H	1.3218	-0.423669	0.2153
C	-0.231607	-1.83779	0.779188
H	-1.33813	-1.92019	0.725832
H	0.221234	-2.70593	0.257858
H	0.0662359	-1.88146	1.84958
N	0.43733	-1.24496	-2.15578
C	0.122438	-1.22439	-3.56525
H	1.11422	-1.90014	-1.83698
H	0.717036	-1.98891	-4.11224
H	0.348159	-0.22531	-4.0036
H	-0.958688	-1.43723	-3.7296
C	4.77967	-3.36017	-0.865427
C	5.00999	-1.93961	-1.21203
O	5.43362	-1.61743	-2.31346
H	5.06517	-3.99979	-1.72869
H	3.70712	-3.52828	-0.632771
H	5.39717	-3.64483	0.0124841
N	4.73309	-1.04432	-0.26115
C	4.94662	0.370856	-0.435031
C	5.22423	0.978194	0.927189
O	5.07849	0.316609	1.95323
H	4.42777	-1.32481	0.644369
H	5.82862	0.52692	-1.04359
C	3.7151	1.03887	-1.08492
H	2.81209	0.888066	-0.455721
H	3.87255	2.12637	-1.2368
H	3.52588	0.573484	-2.07686
N	5.64183	2.25882	0.967484
C	5.93567	2.91907	2.21805
H	5.75777	2.77662	0.126345
H	6.26439	3.96697	2.04177
H	6.74682	2.38437	2.7634
H	5.03466	2.93948	2.87295
