44
  This energy is -4.8274 and Call times are: 69185
C	-0.4824	-2.78167	2.03526
C	0.211448	-2.07768	0.933394
O	1.23592	-2.52869	0.439994
H	0.0846033	-3.701	2.29835
H	-1.50738	-3.06946	1.72008
H	-0.541224	-2.12723	2.93044
N	-0.340566	-0.935049	0.518592
C	0.242392	-0.116244	-0.514983
C	-0.159499	1.32429	-0.26021
O	-0.995314	1.60267	0.59748
H	-1.15194	-0.559867	0.957649
H	1.3218	-0.167216	-0.444846
C	-0.231607	-0.571557	-1.91257
H	-1.33813	-0.509431	-1.98858
H	0.221234	0.0424181	-2.71786
H	0.0662359	-1.63058	-2.07413
N	0.43733	2.28003	-0.999382
C	0.122438	3.67862	-0.823354
H	1.11422	2.0355	-1.68575
H	0.717036	4.30666	-1.52281
H	0.348159	4.004	0.218014
H	-0.958688	3.86546	-1.01674
C	4.00337	-2.43921	2.40979
C	4.49084	-1.10254	2.00129
O	4.77326	-0.250547	2.83241
H	3.9397	-2.48381	3.51875
H	4.70356	-3.22584	2.05808
H	2.99476	-2.62523	1.98416
N	4.59955	-0.886219	0.688369
C	5.01885	0.378361	0.137396
C	4.38433	0.5313	-1.23212
O	3.78897	-0.406774	-1.75868
H	4.32693	-1.57556	0.0232779
H	4.6423	1.18124	0.75885
C	6.55797	0.451178	0.0322469
H	6.94391	-0.366003	-0.61375
H	6.89401	1.4256	-0.377749
H	7.00118	0.328959	1.04465
N	4.49077	1.72912	-1.84032
C	3.91384	1.96964	-3.14242
H	4.97283	2.47731	-1.39658
H	4.10815	3.01414	-3.47181
H	2.81163	1.80871	-3.11947
H	4.34822	1.27667	-3.89889
