44
  This energy is 0.1501 and Call times are: 68643
C	3.18954	-1.39255	0.0190008
C	2.26624	-0.252979	-0.18115
O	2.68825	0.886794	-0.319865
H	4.23647	-1.01891	0.0331394
H	3.08009	-2.12381	-0.809264
H	2.97402	-1.89444	0.985824
N	0.962788	-0.541223	-0.198382
C	-0.0580544	0.466814	-0.340864
C	-1.31028	-0.0258404	0.359682
O	-1.38567	-1.17982	0.777248
H	0.632901	-1.46802	-0.0431887
H	0.259523	1.37069	0.163904
C	-0.347755	0.751866	-1.83085
H	-0.683716	-0.172805	-2.34675
H	-1.12232	1.53637	-1.95384
H	0.584129	1.10338	-2.3252
N	-2.3256	0.846944	0.512656
C	-3.55417	0.469354	1.17161
H	-2.24432	1.77765	0.17171
H	-4.26496	1.32451	1.1984
H	-3.35485	0.146363	2.21909
H	-4.0432	-0.376675	0.636606
C	4.28326	1.10025	-3.30181
C	3.61211	0.512565	-2.12056
O	2.39733	0.37255	-2.0872
H	3.51824	1.37392	-4.06056
H	4.98529	0.365017	-3.74828
H	4.84213	2.01408	-3.00916
N	4.40278	0.151951	-1.10706
C	3.89213	-0.394113	0.125662
C	4.85846	-0.0343853	1.23848
O	5.94968	0.472566	0.985601
H	5.38576	0.309932	-1.1325
H	2.9438	0.0741667	0.358037
C	3.72903	-1.92656	0.0244859
H	4.70368	-2.40836	-0.203483
H	3.32341	-2.35728	0.962824
H	3.02407	-2.16689	-0.801118
N	4.47315	-0.282594	2.50574
C	5.32414	0.0312941	3.62977
H	3.58471	-0.689505	2.69063
H	4.83008	-0.246693	4.58678
H	5.55266	1.12139	3.65707
H	6.28855	-0.521945	3.55919
