44
  This energy is -5.8731 and Call times are: 65619
C	-0.629733	-1.60839	-3.02146
C	-0.134028	-0.45451	-2.23789
O	0.507495	0.44199	-2.76812
H	-0.307027	-1.49956	-4.07971
H	-1.73879	-1.6469	-2.9861
H	-0.214059	-2.55426	-2.61447
N	-0.424057	-0.453571	-0.934713
C	0.0262629	0.57926	-0.0352507
C	0.166204	-0.0266302	1.34854
O	-0.24336	-1.1619	1.58333
H	-0.911956	-1.21075	-0.509851
H	1.00911	0.915646	-0.340998
C	-0.967395	1.76133	-0.0108311
H	-1.97329	1.41871	0.312927
H	-0.62484	2.5693	0.667666
H	-1.06018	2.18399	-1.03509
N	0.760178	0.719481	2.30066
C	0.942169	0.224125	3.64516
H	1.08877	1.63432	2.09048
H	1.4497	0.984309	4.27901
H	1.56318	-0.700866	3.64226
H	-0.040136	-0.0210123	4.11006
C	7.61383	2.15645	0.312443
C	6.22099	1.8651	-0.095327
O	5.45526	2.76254	-0.418845
H	7.78359	3.25465	0.28116
H	8.32679	1.66269	-0.380835
H	7.79345	1.79438	1.34671
N	5.85625	0.580861	-0.0861769
C	4.52205	0.145654	-0.416429
C	4.24497	-1.14245	0.33563
O	5.14296	-1.72308	0.942417
H	6.47845	-0.134437	0.218894
H	3.80934	0.882531	-0.0676147
C	4.37393	-0.0731667	-1.93808
H	5.09773	-0.836725	-2.29464
H	3.34694	-0.395134	-2.20667
H	4.58894	0.880082	-2.46858
N	2.98377	-1.61693	0.319619
C	2.62479	-2.83291	1.0115
H	2.26988	-1.13087	-0.173521
H	1.54304	-3.05575	0.879559
H	2.83308	-2.74043	2.10207
H	3.21099	-3.6956	0.620009
