44
  This energy is -3.4021 and Call times are: 63395
C	2.69952	2.09924	0.646874
C	1.39228	1.50764	1.01057
O	0.92343	1.64898	2.13155
H	3.12249	2.62628	1.5296
H	2.57256	2.82875	-0.180436
H	3.40577	1.30241	0.331659
N	0.766287	0.817998	0.0540633
C	-0.492215	0.148704	0.270342
C	-0.562428	-1.04132	-0.667985
O	0.280749	-1.19946	-1.54876
H	1.17968	0.677191	-0.841006
H	-0.522963	-0.23603	1.28211
C	-1.67703	1.107	0.0191064
H	-1.65192	1.49376	-1.02196
H	-2.65149	0.607269	0.195825
H	-1.60086	1.97405	0.711037
N	-1.57268	-1.91605	-0.493971
C	-1.7173	-3.08096	-1.33554
H	-2.24287	-1.7733	0.226821
H	-2.60786	-3.67551	-1.03446
H	-0.81793	-3.73419	-1.26
H	-1.83878	-2.78274	-2.40205
C	3.38163	-1.66095	0.493389
C	4.85747	-1.64584	0.380113
O	5.52617	-2.62204	0.690427
H	3.05435	-2.64339	0.897815
H	2.91963	-1.5114	-0.505077
H	3.04241	-0.85808	1.18143
N	5.40636	-0.516319	-0.0729657
C	6.83131	-0.335574	-0.197074
C	7.13669	1.1415	-0.0340932
O	6.23049	1.97166	0.00253123
H	4.85178	0.283876	-0.282693
H	7.32936	-0.858861	0.609605
C	7.33492	-0.844862	-1.56537
H	6.83197	-0.300986	-2.39319
H	8.43283	-0.723895	-1.66766
H	7.09372	-1.92561	-1.66612
N	8.42984	1.50413	0.0766725
C	8.81595	2.88626	0.240442
H	9.14878	0.817519	0.0488818
H	9.92193	2.97964	0.313284
H	8.3665	3.31255	1.16649
H	8.46855	3.49654	-0.624437
