44
  This energy is -2.9867 and Call times are: 71562
C	0.80637	-3.36704	-0.354216
C	-0.0376546	-2.18999	-0.659691
O	-0.865406	-2.22112	-1.55984
H	0.560272	-4.1889	-1.06123
H	0.615959	-3.7158	0.682535
H	1.88024	-3.10706	-0.465177
N	0.158922	-1.10674	0.0954862
C	-0.555833	0.128408	-0.109705
C	0.328349	1.26961	0.356588
O	1.37496	1.0483	0.96267
H	0.864864	-1.08322	0.797597
H	-0.730849	0.268093	-1.16918
C	-1.8922	0.127646	0.664479
H	-1.71252	-0.00506514	1.75266
H	-2.45839	1.06787	0.503461
H	-2.51968	-0.720199	0.312648
N	-0.0711972	2.52544	0.0750221
C	0.708281	3.67405	0.474145
H	-0.919057	2.68431	-0.419919
H	0.21381	4.61648	0.150818
H	1.72416	3.637	0.0181965
H	0.827679	3.70252	1.58143
C	3.28135	2.34177	-2.29415
C	3.31525	0.973014	-1.73156
O	2.49631	0.12938	-2.06923
H	2.42681	2.42768	-3
H	4.2232	2.55353	-2.84262
H	3.15196	3.08668	-1.48086
N	4.27961	0.720066	-0.843628
C	4.41436	-0.551774	-0.178182
C	5.05973	-0.31221	1.17374
O	5.5194	0.790137	1.46569
H	4.91368	1.42897	-0.548218
H	3.43045	-0.966175	0.00296299
C	5.26629	-1.52716	-1.01965
H	6.27931	-1.10712	-1.19685
H	5.36585	-2.51472	-0.524335
H	4.77937	-1.68151	-2.00729
N	5.10133	-1.34488	2.03853
C	5.69102	-1.20922	3.35004
H	4.72048	-2.22812	1.78573
H	5.62808	-2.16789	3.9106
H	5.16358	-0.42387	3.93852
H	6.76369	-0.919047	3.2706
