44
  This energy is 0.1614 and Call times are: 64726
C	-2.50646	1.86146	-1.53795
C	-1.84025	1.31721	-0.333338
O	-2.14171	1.70572	0.786745
H	-3.24697	2.63197	-1.23162
H	-3.03541	1.05087	-2.08192
H	-1.75753	2.33019	-2.21062
N	-0.901656	0.390923	-0.541697
C	-0.136736	-0.200084	0.527962
C	1.21521	-0.60782	-0.0266105
O	1.4385	-0.567159	-1.235
H	-0.638661	0.114622	-1.46167
H	0.0401385	0.544323	1.29426
C	-0.870305	-1.42331	1.12027
H	-1.04263	-2.19181	0.336839
H	-0.297854	-1.87894	1.95407
H	-1.8601	-1.10303	1.5128
N	2.15719	-1.00511	0.851371
C	3.47481	-1.40621	0.416409
H	1.95902	-1.02742	1.82569
H	4.10424	-1.69762	1.28596
H	3.9824	-0.571815	-0.119696
H	3.41193	-2.2751	-0.278018
C	5.66448	2.37475	-2.04442
C	5.59853	1.58107	-0.796677
O	6.53812	1.55307	-0.01387
H	6.65759	2.86963	-2.11286
H	4.87377	3.15419	-2.04443
H	5.53112	1.71319	-2.92626
N	4.46729	0.905245	-0.58232
C	4.27104	0.0552009	0.565488
C	3.29532	-1.04101	0.180926
O	2.69407	-1.00145	-0.890819
H	3.72711	0.905281	-1.24865
H	5.20872	-0.422535	0.820703
C	3.73122	0.864162	1.76525
H	2.76401	1.34587	1.50739
H	3.58902	0.223366	2.6595
H	4.45735	1.66545	2.0241
N	3.12135	-2.0563	1.04978
C	2.21742	-3.14675	0.766927
H	3.61987	-2.07285	1.91018
H	2.21384	-3.88134	1.60216
H	2.52094	-3.67693	-0.164779
H	1.17848	-2.7698	0.626795
