44
  This energy is -0.3951 and Call times are: 70263
C	1.92587	-0.694701	2.81444
C	1.46671	-1.00217	1.44121
O	2.02694	-1.85115	0.761661
H	2.80914	-1.32502	3.05615
H	1.11877	-0.911574	3.5454
H	2.21576	0.37453	2.89061
N	0.419705	-0.304091	0.995297
C	-0.11407	-0.460862	-0.334766
C	-0.741896	0.856094	-0.750719
O	-0.881597	1.77073	0.0589971
H	-3.86563e-05	0.4124	1.54514
H	0.696661	-0.66347	-1.02346
C	-1.15927	-1.597	-0.379398
H	-1.99644	-1.38452	0.3192
H	-1.56762	-1.73681	-1.40127
H	-0.679901	-2.54929	-0.0636671
N	-1.12963	0.985983	-2.03478
C	-1.73172	2.20472	-2.52299
H	-1.00458	0.23622	-2.6761
H	-1.98028	2.11517	-3.60346
H	-1.03643	3.06558	-2.3935
H	-2.66902	2.43102	-1.96496
C	10.4608	-1.90011	-1.95792
C	10.176	-1.05239	-0.778325
O	10.9845	-0.943911	0.133241
H	11.4563	-2.37906	-1.83426
H	10.4715	-1.2817	-2.87998
H	9.68978	-2.69345	-2.0541
N	8.99803	-0.424139	-0.769475
C	8.56136	0.40104	0.329138
C	7.04547	0.362965	0.3759
O	6.40033	-0.159495	-0.531043
H	8.33336	-0.55473	-1.49955
H	8.92344	-0.0205819	1.25852
C	9.06164	1.85257	0.16172
H	8.6818	2.28914	-0.786525
H	8.74358	2.49475	1.00845
H	10.1728	1.85548	0.121944
N	6.43892	0.912505	1.44647
C	5.00078	0.918239	1.58021
H	6.97808	1.32692	2.17217
H	4.6959	1.41489	2.52765
H	4.6027	-0.122328	1.58614
H	4.5292	1.46343	0.730792
