44
  This energy is -1.0652 and Call times are: 62592
C	1.24409	-2.44336	-2.14358
C	0.562225	-1.15349	-1.89368
O	0.34343	-0.366349	-2.80415
H	1.50207	-2.5195	-3.22225
H	0.576076	-3.28804	-1.87334
H	2.17775	-2.50482	-1.54558
N	0.207778	-0.904485	-0.630852
C	-0.424642	0.326068	-0.22546
C	-0.0541738	0.594058	1.22108
O	0.53239	-0.255567	1.88876
H	0.429303	-1.53688	0.105948
H	-0.0288981	1.14266	-0.816393
C	-1.95829	0.236451	-0.383962
H	-2.36603	-0.594487	0.230309
H	-2.45578	1.18275	-0.0880887
H	-2.2059	0.032018	-1.4485
N	-0.383187	1.79394	1.73882
C	-0.066295	2.14041	3.10474
H	-0.853982	2.46999	1.18169
H	-0.418019	3.16877	3.34134
H	1.03386	2.09832	3.27551
H	-0.552979	1.43151	3.81308
C	4.85752	-1.5127	-2.80811
C	5.9769	-0.842034	-2.10929
O	7.09894	-0.810953	-2.59558
H	5.22861	-1.95075	-3.76009
H	4.05592	-0.779729	-3.03817
H	4.44387	-2.32613	-2.17543
N	5.69117	-0.283023	-0.931045
C	6.68486	0.367902	-0.114084
C	6.25908	0.244515	1.3368
O	5.14687	-0.188469	1.6321
H	4.78253	-0.352095	-0.529218
H	7.62923	-0.15162	-0.218413
C	6.83727	1.85312	-0.509237
H	5.87123	2.38897	-0.392323
H	7.60949	2.36191	0.103404
H	7.14148	1.91953	-1.57666
N	7.14426	0.617269	2.28207
C	6.82935	0.530006	3.68898
H	8.04087	0.961331	2.02365
H	7.68509	0.882277	4.3061
H	6.6001	-0.521917	3.97566
H	5.94028	1.15571	3.93231
