44
  This energy is 0.1148 and Call times are: 71059
C	2.47822	1.80574	-1.64634
C	2.0011	0.600576	-0.931435
O	2.66797	-0.42458	-0.90392
H	3.46136	1.58816	-2.11748
H	2.59945	2.64968	-0.93514
H	1.75521	2.09169	-2.43917
N	0.813802	0.699111	-0.328952
C	0.198637	-0.402107	0.369226
C	-1.30645	-0.225044	0.299058
O	-1.79871	0.813551	-0.137648
H	0.264204	1.52705	-0.394772
H	0.438729	-1.32696	-0.140315
C	0.669615	-0.455562	1.83911
H	0.414138	0.488913	2.36517
H	0.213582	-1.3076	2.38371
H	1.7745	-0.577426	1.86626
N	-2.07663	-1.24638	0.722996
C	-3.51859	-1.17059	0.688731
H	-1.65991	-2.08038	1.06922
H	-3.97109	-2.10902	1.07836
H	-3.87903	-1.01425	-0.353822
H	-3.88243	-0.321035	1.31084
C	4.12053	-2.44164	1.8775
C	3.40233	-1.99482	0.662724
O	3.35326	-2.69688	-0.337831
H	4.57238	-3.44003	1.69067
H	3.41557	-2.52036	2.73166
H	4.92854	-1.72314	2.13037
N	2.82155	-0.794291	0.72453
C	2.12348	-0.206151	-0.391423
C	2.22151	1.30278	-0.268542
O	2.67678	1.82361	0.747903
H	2.90496	-0.217039	1.5318
H	2.61976	-0.487751	-1.31177
C	0.645189	-0.652626	-0.414742
H	0.132864	-0.354668	0.524827
H	0.10033	-0.217407	-1.27743
H	0.597664	-1.76046	-0.497061
N	1.8011	2.04377	-1.31267
C	1.86114	3.48668	-1.28842
H	1.43958	1.60405	-2.12816
H	1.47032	3.91257	-2.23874
H	2.91127	3.83391	-1.15448
H	1.25374	3.89126	-0.446688
