44
  This energy is 0.1002 and Call times are: 66910
C	-2.06044	-0.850097	-2.67294
C	-1.84799	-0.304792	-1.31329
O	-2.74113	0.285299	-0.721256
H	-3.09382	-0.612204	-3.00674
H	-1.92926	-1.9526	-2.66791
H	-1.33933	-0.395489	-3.38457
N	-0.637904	-0.491905	-0.781248
C	-0.267551	0.0182993	0.515321
C	1.22826	0.271497	0.51435
O	1.9307	-0.108373	-0.420526
H	0.0914305	-0.938331	-1.29178
H	-0.755897	0.971183	0.677067
C	-0.646885	-0.980811	1.63028
H	-0.137867	-1.95521	1.47062
H	-0.379363	-0.593347	2.63468
H	-1.74447	-1.15724	1.60712
N	1.75138	0.931567	1.56634
C	3.16365	1.22263	1.64973
H	1.16631	1.23459	2.31128
H	3.39729	1.77148	2.58856
H	3.48704	1.84967	0.787452
H	3.76035	0.281942	1.63552
C	5.36774	0.0103353	-2.96791
C	4.37779	0.60816	-2.04392
O	3.95693	1.74387	-2.21556
H	5.62915	0.750493	-3.75511
H	4.94228	-0.893852	-3.45182
H	6.28973	-0.266168	-2.41423
N	3.97983	-0.156763	-1.02465
C	3.05403	0.301868	-0.0191105
C	3.35278	-0.437665	1.2714
O	4.14338	-1.37912	1.28923
H	4.36218	-1.0641	-0.874961
H	3.22149	1.35546	0.166691
C	1.59442	0.0548642	-0.45931
H	1.41925	-1.02715	-0.639874
H	0.871599	0.416368	0.300533
H	1.40061	0.598855	-1.40949
N	2.7288	-0.0198159	2.39035
C	2.95497	-0.659202	3.66558
H	2.0956	0.746349	2.35674
H	2.35137	-0.171594	4.46254
H	4.02986	-0.595663	3.95168
H	2.67267	-1.73598	3.62095
