44
  This energy is 1.3119 and Call times are: 70067
C	0.405649	-3.36763	0.779223
C	0.869384	-2.11052	0.15012
O	2.01123	-1.99878	-0.274283
H	1.2416	-4.1003	0.795577
H	-0.437707	-3.79753	0.198985
H	0.0762959	-3.17488	1.82204
N	-0.0219671	-1.11926	0.0775203
C	0.294497	0.17703	-0.468408
C	-0.594963	1.20432	0.206195
O	-1.51949	0.853934	0.937075
H	-0.935086	-1.21143	0.464283
H	1.31926	0.427226	-0.223671
C	0.0823615	0.198198	-1.99804
H	-0.971357	-0.0480868	-2.24916
H	0.335974	1.18698	-2.43222
H	0.737137	-0.566586	-2.46998
N	-0.328555	2.50605	-0.0186677
C	-1.11784	3.55436	0.584859
H	0.426361	2.76998	-0.609863
H	-0.741948	4.55546	0.278701
H	-1.07432	3.48849	1.69618
H	-2.18483	3.47062	0.27558
C	7.0399	3.25148	-0.276169
C	8.12849	2.2533	-0.374927
O	9.19434	2.52971	-0.907814
H	7.36502	4.1985	-0.759189
H	6.80238	3.45455	0.789239
H	6.13053	2.87834	-0.792788
N	7.8782	1.04894	0.14397
C	8.8233	-0.038227	0.0856519
C	8.04599	-1.34105	0.0828502
O	6.83408	-1.35178	0.289886
H	6.99099	0.826442	0.537947
H	9.36989	0.0132842	-0.847737
C	9.79462	0.0101985	1.28542
H	9.23516	-0.0532327	2.24303
H	10.5361	-0.813829	1.24452
H	10.3468	0.975231	1.27188
N	8.72941	-2.47638	-0.16206
C	8.073	-3.76266	-0.190129
H	9.70897	-2.44706	-0.331359
H	8.80385	-4.57247	-0.407599
H	7.28296	-3.78341	-0.975426
H	7.59078	-3.97934	0.79051
