44
  This energy is 0.1373 and Call times are: 71905
C	0.522216	-2.70121	-2.13153
C	0.898499	-1.86807	-0.967301
O	1.75683	-2.23553	-0.176956
H	1.11529	-3.64139	-2.11739
H	0.733771	-2.15703	-3.07591
H	-0.557491	-2.95671	-2.08629
N	0.250922	-0.70829	-0.833428
C	0.477211	0.189373	0.271811
C	-0.802335	0.965629	0.520293
O	-1.7442	0.89592	-0.266941
H	-0.474118	-0.441777	-1.46204
H	0.682793	-0.387951	1.1646
C	1.6453	1.15338	-0.0306612
H	1.43027	1.75339	-0.940489
H	1.83845	1.84059	0.818432
H	2.56918	0.563408	-0.217039
N	-0.86861	1.72202	1.63363
C	-2.04793	2.49116	1.95582
H	-0.0977447	1.76246	2.26069
H	-1.90745	3.04537	2.90994
H	-2.93394	1.82455	2.06491
H	-2.26808	3.22899	1.15066
C	5.50075	0.920798	2.18141
C	4.12175	0.45558	1.91106
O	3.40591	0.0399422	2.81174
H	5.72262	0.802457	3.26429
H	5.60365	1.99208	1.90846
H	6.22894	0.319196	1.59756
N	3.71382	0.51446	0.641212
C	2.41404	0.0574904	0.216588
C	2.52098	-0.397897	-1.22659
O	3.54229	-0.189578	-1.87868
H	4.32212	0.816817	-0.0870709
H	2.12813	-0.80444	0.806467
C	1.36257	1.18039	0.353556
H	1.65007	2.06089	-0.259716
H	0.3547	0.836725	0.0427276
H	1.30696	1.50349	1.41603
N	1.46389	-1.04229	-1.75888
C	1.47663	-1.51725	-3.12285
H	0.64786	-1.20513	-1.21422
H	0.516783	-2.02061	-3.37298
H	2.30514	-2.24594	-3.27731
H	1.62433	-0.671104	-3.83234
