44
  This energy is 0.1071 and Call times are: 63237
C	2.45527	-1.3472	2.06625
C	1.88126	-0.231688	1.28057
O	2.32211	0.905061	1.37987
H	3.27395	-0.959424	2.71067
H	2.86917	-2.12107	1.38614
H	1.67459	-1.80204	2.71181
N	0.86552	-0.537759	0.470033
C	0.176482	0.44804	-0.324944
C	-1.24992	-0.0249322	-0.532893
O	-1.59317	-1.15706	-0.19796
H	0.491053	-1.45976	0.430671
H	0.130373	1.38059	0.223567
C	0.882443	0.652982	-1.6832
H	0.92064	-0.301145	-2.25084
H	0.369305	1.41982	-2.29896
H	1.92683	0.991249	-1.50663
N	-2.12126	0.840918	-1.08705
C	-3.50082	0.481047	-1.31832
H	-1.82579	1.75406	-1.34769
H	-4.05568	1.32692	-1.78076
H	-4.00313	0.214487	-0.36024
H	-3.56888	-0.397558	-1.99991
C	1.99591	-0.571963	0.932006
C	3.10091	-0.627751	-0.0513676
O	2.99102	-1.26178	-1.09172
H	1.14456	-1.1842	0.562939
H	1.65409	0.476058	1.06451
H	2.33275	-0.97709	1.9095
N	4.21018	0.0450868	0.263607
C	5.38463	0.0497303	-0.572572
C	6.59715	0.253721	0.316104
O	6.46593	0.543824	1.50368
H	4.29962	0.522829	1.13287
H	5.49042	-0.918767	-1.04527
C	5.29959	1.1655	-1.63703
H	5.20164	2.16028	-1.15242
H	6.19188	1.17056	-2.29605
H	4.40085	1.00056	-2.27059
N	7.81416	0.097253	-0.241057
C	9.02498	0.265914	0.528123
H	7.90002	-0.141595	-1.20265
H	9.92167	0.0951109	-0.107494
H	9.05467	-0.455028	1.37703
H	9.08364	1.29618	0.947955
