44
  This energy is -2.3604 and Call times are: 70207
C	-0.660845	-3.01269	1.61235
C	0.137819	-2.17744	0.687344
O	1.21531	-2.56377	0.25587
H	-0.113101	-3.95758	1.81983
H	-1.6421	-3.25912	1.15502
H	-0.824226	-2.47438	2.56975
N	-0.381723	-0.99216	0.359369
C	0.29783	-0.0514544	-0.496109
C	-0.148369	1.34634	-0.110594
O	-1.07511	1.51617	0.679355
H	-1.24051	-0.674334	0.750944
H	1.36405	-0.110762	-0.316396
C	-0.0171984	-0.329832	-1.98221
H	-1.1099	-0.258729	-2.16927
H	0.511232	0.379305	-2.65185
H	0.310439	-1.36064	-2.23998
N	0.511522	2.3864	-0.657266
C	0.16083	3.75235	-0.345188
H	1.26142	2.22891	-1.29124
H	0.818632	4.4623	-0.893349
H	0.269034	3.94601	0.746628
H	-0.895682	3.96176	-0.629909
C	5.04873	-2.31982	1.86725
C	6.15305	-1.34623	1.71307
O	6.80699	-0.972895	2.67712
H	4.94534	-2.591	2.94039
H	5.26478	-3.23918	1.28344
H	4.09419	-1.87461	1.51553
N	6.38667	-0.905018	0.474872
C	7.39914	0.0761368	0.173554
C	6.96052	0.845467	-1.05824
O	5.9859	0.482073	-1.7138
H	5.81932	-1.18703	-0.293527
H	7.46435	0.784486	0.990016
C	8.76698	-0.598969	-0.0682673
H	8.70324	-1.31803	-0.91262
H	9.55797	0.14718	-0.287626
H	9.06429	-1.16256	0.84295
N	7.67058	1.93925	-1.39803
C	7.32426	2.73715	-2.55111
H	8.45359	2.21984	-0.852836
H	8.02634	3.59265	-2.66261
H	6.29108	3.14225	-2.45249
H	7.36754	2.12436	-3.4805
