44
  This energy is -4.1688 and Call times are: 65647
C	0.828794	-3.37738	0.138066
C	-0.0647601	-2.27046	-0.271103
O	-0.981323	-2.45543	-1.05984
H	0.525814	-4.30802	-0.389193
H	0.754458	-3.54435	1.23321
H	1.88004	-3.13917	-0.128806
N	0.189044	-1.07408	0.264288
C	-0.566595	0.107308	-0.0702056
C	0.339625	1.31213	0.0992703
O	1.44787	1.19839	0.61943
H	0.963931	-0.930503	0.873223
H	-0.854017	0.0640593	-1.11335
C	-1.81446	0.237405	0.830426
H	-1.51953	0.292426	1.90002
H	-2.41216	1.13587	0.573424
H	-2.45904	-0.658599	0.696095
N	-0.110965	2.50116	-0.347048
C	0.683983	3.70172	-0.233515
H	-1.00878	2.5725	-0.768842
H	0.140598	4.57474	-0.657538
H	1.64716	3.58836	-0.781887
H	0.917902	3.91877	0.833873
C	4.54362	0.457146	3.44475
C	4.42966	0.980951	2.06497
O	4.15459	2.15408	1.85395
H	4.32763	1.27433	4.16684
H	5.57153	0.0790083	3.62685
H	3.81407	-0.364816	3.60349
N	4.64026	0.106052	1.07877
C	4.52255	0.456821	-0.314667
C	4.12023	-0.78771	-1.08334
O	4.11076	-1.88943	-0.537594
H	4.82297	-0.854875	1.26609
H	3.72679	1.18138	-0.434651
C	5.85455	1.02067	-0.856054
H	6.66901	0.273767	-0.742825
H	5.77281	1.30743	-1.92451
H	6.13347	1.92598	-0.273862
N	3.76816	-0.638024	-2.37549
C	3.36551	-1.76468	-3.18461
H	3.77816	0.262059	-2.79836
H	3.11469	-1.43732	-4.21764
H	2.46958	-2.26207	-2.74735
H	4.18395	-2.51816	-3.24436
