44
  This energy is 0.105 and Call times are: 72000
C	-0.0806668	-1.5923	-3.09366
C	0.346642	-1.51493	-1.67854
O	0.864306	-2.47247	-1.12038
H	0.132837	-2.61006	-3.48667
H	0.474757	-0.848186	-3.70238
H	-1.17071	-1.39685	-3.17549
N	0.133184	-0.352889	-1.05687
C	0.455858	-0.139487	0.331981
C	-0.493427	0.908023	0.882558
O	-1.24145	1.53517	0.13499
H	-0.326489	0.404056	-1.5125
H	0.281573	-1.0547	0.883923
C	1.92157	0.319638	0.493591
H	2.09819	1.26416	-0.0638365
H	2.18637	0.473983	1.5597
H	2.59792	-0.458344	0.0768832
N	-0.490584	1.11639	2.21395
C	-1.36354	2.08914	2.82867
H	0.118932	0.596225	2.80301
H	-1.21268	2.11218	3.93046
H	-2.43096	1.84239	2.62618
H	-1.16229	3.10806	2.42563
C	3.05799	-1.47597	2.74891
C	3.23554	-0.352206	1.80192
O	2.44149	0.577675	1.76706
H	2.1323	-1.31321	3.34258
H	3.9238	-1.5331	3.44163
H	2.96523	-2.43319	2.19376
N	4.29937	-0.416177	0.997825
C	4.58138	0.580606	-0.0048942
C	5.34461	-0.0866087	-1.13356
O	5.76096	-1.2377	-1.01806
H	4.9141	-1.19964	1.0098
H	3.64924	0.945863	-0.417579
C	5.40319	1.74487	0.590387
H	6.36428	1.3722	1.00446
H	5.61495	2.52566	-0.168591
H	4.82897	2.21312	1.41946
N	5.53932	0.62356	-2.26217
C	6.24972	0.0692191	-3.39097
H	5.19135	1.5521	-2.33833
H	6.30498	0.806882	-4.22166
H	5.73634	-0.844999	-3.7677
H	7.28821	-0.212278	-3.10211
