44
  This energy is 0.1359 and Call times are: 72408
C	-1.17213	-1.24105	3.03292
C	-0.134316	-1.13237	1.98302
O	0.996987	-1.56089	2.16449
H	-0.735606	-1.72818	3.93182
H	-2.0223	-1.85519	2.66852
H	-1.53938	-0.23148	3.31395
N	-0.503062	-0.544039	0.842727
C	0.407242	-0.327246	-0.254044
C	-0.0548764	0.900071	-1.01673
O	-1.13761	1.42625	-0.766686
H	-1.41593	-0.163609	0.725187
H	1.39344	-0.111258	0.137604
C	0.45209	-1.55844	-1.18538
H	-0.557427	-1.77409	-1.59576
H	1.16	-1.40927	-2.02629
H	0.785034	-2.44613	-0.604441
N	0.765561	1.39208	-1.96586
C	0.41242	2.55986	-2.739
H	1.63948	0.954966	-2.15096
H	1.21603	2.80717	-3.4672
H	0.259592	3.44013	-2.07338
H	-0.531851	2.38631	-3.30413
C	0.465332	-0.570394	1.50739
C	1.77413	-1.03945	0.999258
O	2.18195	-2.16611	1.24569
H	-0.00364585	-1.37605	2.11306
H	-0.206915	-0.320313	0.659873
H	0.602486	0.326698	2.1473
N	2.47337	-0.168671	0.267692
C	3.78218	-0.465134	-0.259259
C	4.54812	0.838428	-0.384307
O	3.98496	1.91839	-0.216272
H	2.14656	0.758788	0.10999
H	4.31845	-1.088	0.445778
C	3.67861	-1.16609	-1.63155
H	3.13774	-0.523052	-2.35818
H	4.67961	-1.41208	-2.04145
H	3.10762	-2.11337	-1.51762
N	5.86176	0.76627	-0.676134
C	6.6728	1.95396	-0.80947
H	6.30057	-0.11693	-0.804483
H	7.72515	1.68649	-1.05087
H	6.66876	2.54071	0.137622
H	6.28171	2.60778	-1.62231
