44
  This energy is 0.1019 and Call times are: 65676
C	2.03037	-1.25925	-2.53072
C	1.49503	-1.29327	-1.15109
O	1.6904	-2.25426	-0.419827
H	2.5734	-2.20702	-2.73745
H	2.73463	-0.408828	-2.6471
H	1.2003	-1.15409	-3.26081
N	0.793716	-0.226625	-0.760194
C	0.174078	-0.132464	0.538167
C	-1.04472	0.76272	0.416782
O	-1.26087	1.39586	-0.614784
H	0.608525	0.530068	-1.38067
H	-0.174231	-1.11247	0.839679
C	1.16159	0.43577	1.58084
H	1.5111	1.44558	1.27727
H	0.700607	0.500195	2.58775
H	2.04906	-0.230814	1.6472
N	-1.87918	0.829458	1.47283
C	-3.0671	1.65065	1.44684
H	-1.68963	0.306611	2.29731
H	-3.62125	1.57113	2.408
H	-3.74657	1.33252	0.623201
H	-2.80209	2.72012	1.28212
C	0.731227	0.402591	2.65099
C	1.99944	0.714406	1.95416
O	2.70377	1.64924	2.3097
H	0.570128	1.1394	3.4677
H	0.776202	-0.616288	3.08986
H	-0.120234	0.461618	1.94063
N	2.32163	-0.0748435	0.926709
C	3.50225	0.129913	0.124975
C	3.22544	-0.401303	-1.26885
O	2.20544	-1.04546	-1.50626
H	1.71784	-0.806538	0.623527
H	3.69216	1.19208	0.0335376
C	4.72154	-0.58682	0.745349
H	4.53128	-1.67803	0.829649
H	5.63995	-0.425203	0.144576
H	4.90066	-0.188006	1.7677
N	4.13038	-0.134094	-2.23098
C	3.94894	-0.593976	-3.58809
H	4.94758	0.392186	-2.0205
H	4.79959	-0.273327	-4.22903
H	3.00904	-0.180614	-4.02054
H	3.8844	-1.70568	-3.62107
