44
  This energy is -4.002 and Call times are: 69040
C	-0.859659	-3.27355	0.810872
C	-0.705299	-2.16991	-0.163442
O	-0.787038	-2.37212	-1.36712
H	-1.02841	-4.22612	0.263134
H	-1.72985	-3.08068	1.47292
H	0.0589118	-3.37125	1.42713
N	-0.472314	-0.95766	0.345029
C	-0.257494	0.206307	-0.47813
C	0.63246	1.16835	0.286078
O	0.905953	0.969472	1.46818
H	-0.367753	-0.816043	1.32527
H	0.27606	-0.0837446	-1.37469
C	-1.5987	0.880944	-0.840443
H	-2.14163	1.18819	0.0787232
H	-1.44759	1.77057	-1.48562
H	-2.23681	0.156348	-1.39192
N	1.11462	2.23664	-0.37898
C	1.97379	3.20301	0.264548
H	0.885504	2.37837	-1.33632
H	2.26476	4.00636	-0.44763
H	2.90202	2.71462	0.640232
H	1.45603	3.67343	1.13159
C	3.40074	-2.87482	1.5524
C	4.16453	-1.60694	1.5687
O	4.56327	-1.12161	2.6184
H	3.26821	-3.23718	2.59499
H	3.95007	-3.64508	0.97131
H	2.40039	-2.71311	1.09828
N	4.38635	-1.03249	0.384133
C	5.07709	0.225124	0.243263
C	4.5621	0.909969	-1.00867
O	3.82321	0.31694	-1.7923
H	4.02016	-1.41834	-0.457816
H	4.83277	0.862955	1.08356
C	6.60367	0.00902638	0.153243
H	6.8557	-0.636655	-0.714869
H	7.14778	0.971046	0.0584518
H	6.95725	-0.500471	1.07613
N	4.93661	2.18679	-1.22197
C	4.49155	2.92109	-2.38339
H	5.53167	2.65115	-0.574406
H	4.90633	3.95316	-2.37888
H	3.37973	2.9903	-2.40206
H	4.82166	2.41441	-3.31905
