44
  This energy is -6.6686 and Call times are: 69725
C	1.55879	2.52274	-1.82171
C	0.352694	1.77789	-1.3955
O	-0.769913	2.19583	-1.64346
H	1.24976	3.45466	-2.34316
H	2.16388	1.90501	-2.51814
H	2.1741	2.79278	-0.937643
N	0.562463	0.639057	-0.731082
C	-0.51118	-0.173043	-0.214999
C	0.000849518	-0.913742	1.00596
O	1.19469	-0.894692	1.29939
H	1.48179	0.332776	-0.501081
H	-1.31916	0.469182	0.112647
C	-1.01113	-1.17026	-1.2831
H	-0.185117	-1.83631	-1.61191
H	-1.84721	-1.79196	-0.902337
H	-1.37358	-0.606587	-2.17038
N	-0.898688	-1.58117	1.75523
C	-0.504785	-2.31018	2.93826
H	-1.86096	-1.58153	1.50403
H	-1.3869	-2.7906	3.41605
H	-0.0322843	-1.62747	3.68118
H	0.232273	-3.1055	2.68263
C	3.02069	1.61099	2.65014
C	4.19857	0.954287	2.03983
O	5.29905	1.00731	2.57138
H	3.33021	2.12353	3.58681
H	2.24456	0.855277	2.89359
H	2.59745	2.36346	1.95175
N	3.98947	0.311556	0.888495
C	5.04606	-0.338743	0.154134
C	4.67743	-0.324497	-1.31742
O	3.56011	0.035235	-1.68332
H	3.09662	0.311896	0.447282
H	5.9602	0.231402	0.263207
C	5.24962	-1.78807	0.647341
H	4.31513	-2.37631	0.52588
H	6.0699	-2.29502	0.0990138
H	5.51067	-1.7747	1.72809
N	5.6184	-0.710527	-2.20149
C	5.36021	-0.724241	-3.62252
H	6.51803	-0.994315	-1.88653
H	6.25684	-1.07136	-4.18181
H	5.09526	0.29596	-3.98346
H	4.51209	-1.406	-3.86135
