44
  This energy is -5.4881 and Call times are: 66227
C	-0.785936	-3.37963	-0.270411
C	-0.626197	-2.02814	-0.852753
O	-0.649613	-1.85369	-2.0633
H	-0.899767	-4.12173	-1.09029
H	-1.68955	-3.4144	0.373807
H	0.108089	-3.64462	0.332574
N	-0.455046	-1.02568	0.0122075
C	-0.243387	0.338051	-0.404918
C	0.581012	1.03596	0.660369
O	0.809965	0.489819	1.73788
H	-0.397281	-1.18901	0.99295
H	0.337311	0.346018	-1.3189
C	-1.58921	1.06683	-0.611991
H	-2.1808	1.06814	0.328251
H	-1.43982	2.11381	-0.946711
H	-2.17902	0.534373	-1.38979
N	1.05598	2.26508	0.378025
C	1.85468	3.00349	1.32829
H	0.86358	2.68884	-0.500885
H	2.14942	3.99138	0.910655
H	2.78145	2.44042	1.58387
H	1.2851	3.17652	2.26998
C	2.69382	-1.21422	-2.40233
C	3.55332	-1.39724	-1.21114
O	3.50013	-2.42083	-0.543428
H	2.04622	-2.10889	-2.52892
H	3.32006	-1.09238	-3.31103
H	2.04916	-0.319058	-2.27517
N	4.37691	-0.38963	-0.913126
C	5.24238	-0.403397	0.239837
C	5.46809	1.0311	0.678976
O	5.08514	1.97019	-0.0161352
H	4.37945	0.454034	-1.44235
H	4.74475	-0.915458	1.05395
C	6.58769	-1.08726	-0.0883299
H	7.10353	-0.556028	-0.916428
H	7.25761	-1.11651	0.79534
H	6.39775	-2.13302	-0.414905
N	6.09239	1.23386	1.8559
C	6.34585	2.5643	2.35775
H	6.39122	0.461268	2.40624
H	6.86809	2.52165	3.33891
H	5.39069	3.12164	2.49307
H	6.98254	3.13815	1.64609
