44
  This energy is 0.1219 and Call times are: 69424
C	-3.08344	-0.658612	1.47354
C	-1.6107	-0.524089	1.53742
O	-1.0224	-0.508769	2.60984
H	-3.49209	-0.716471	2.50579
H	-3.35981	-1.58367	0.925244
H	-3.52618	0.221123	0.960567
N	-0.973098	-0.41961	0.369118
C	0.454042	-0.239758	0.271727
C	0.748762	0.520221	-1.00778
O	-0.136727	0.727883	-1.83512
H	-1.46955	-0.392521	-0.493822
H	0.793917	0.373683	1.09684
C	1.18304	-1.6013	0.272953
H	0.842401	-2.22691	-0.579466
H	2.28353	-1.47578	0.21234
H	0.946661	-2.14331	1.21461
N	2.0076	0.962698	-1.19638
C	2.38015	1.69986	-2.38127
H	2.70944	0.788423	-0.513651
H	3.45728	1.97565	-2.3504
H	1.78115	2.6354	-2.46637
H	2.20017	1.09027	-3.29623
C	4.6137	-1.87464	-2.78633
C	4.21135	-0.601691	-2.1469
O	4.2825	0.460004	-2.75035
H	4.97399	-1.6697	-3.81785
H	3.74729	-2.56695	-2.83918
H	5.4328	-2.3514	-2.20767
N	3.77439	-0.682105	-0.887938
C	3.3883	0.475327	-0.119929
C	3.63535	0.173998	1.34627
O	3.93491	-0.960242	1.71433
H	3.76087	-1.54813	-0.396336
H	4.02291	1.3105	-0.388975
C	1.90297	0.825059	-0.358054
H	1.2508	-0.0276153	-0.0722736
H	1.59715	1.7229	0.217169
H	1.74378	1.03397	-1.43849
N	3.52276	1.19246	2.22153
C	3.74495	1.0017	3.63589
H	3.28351	2.10411	1.90415
H	3.60547	1.95703	4.18826
H	4.78003	0.635442	3.82499
H	3.03243	0.250938	4.04796
