44
  This energy is -7.2815 and Call times are: 68932
C	0.300002	-0.695615	-3.39688
C	0.746529	-0.0119593	-2.16223
O	1.81973	0.573248	-2.1155
H	1.08142	-0.586801	-4.18009
H	-0.643935	-0.241941	-3.76554
H	0.137839	-1.77614	-3.19873
N	-0.0813624	-0.0744328	-1.11673
C	0.234255	0.505348	0.16499
C	-0.481399	-0.296296	1.23586
O	-1.31079	-1.152	0.933218
H	-0.932914	-0.589273	-1.15756
H	1.29741	0.41084	0.347763
C	-0.195151	1.98783	0.220691
H	-1.28757	2.08442	0.0437051
H	0.0550937	2.44942	1.19785
H	0.334705	2.55359	-0.576502
N	-0.16842	-0.0414682	2.5216
C	-0.794105	-0.758342	3.60825
H	0.508219	0.651817	2.74652
H	-0.403817	-0.405715	4.58832
H	-0.594545	-1.85122	3.52424
H	-1.89775	-0.606922	3.59511
C	3.51358	-2.70786	1.6906
C	3.64054	-1.25457	1.43963
O	2.84946	-0.457071	1.92399
H	2.62437	-2.8936	2.33142
H	4.41773	-3.0866	2.21196
H	3.38514	-3.25208	0.731221
N	4.65588	-0.873243	0.661127
C	4.88341	0.501788	0.292246
C	5.57754	0.520991	-1.0566
O	5.99534	-0.517741	-1.56472
H	5.2672	-1.53774	0.240888
H	3.93043	1.0017	0.17175
C	5.7428	1.2228	1.35377
H	6.72474	0.716552	1.47019
H	5.91343	2.28619	1.08803
H	5.21928	1.18953	2.33415
N	5.70951	1.71102	-1.67501
C	6.35134	1.82608	-2.9638
H	5.36137	2.53997	-1.24989
H	6.36141	2.88472	-3.30501
H	5.81346	1.21725	-3.72622
H	7.40367	1.46397	-2.91257
