44
  This energy is -0.7642 and Call times are: 63965
C	0.29725	-0.204494	-3.46158
C	0.170328	0.572602	-2.20812
O	0.337429	1.78434	-2.19492
H	0.568051	0.481659	-4.29329
H	-0.666298	-0.700108	-3.70383
H	1.09186	-0.973036	-3.35657
N	-0.131193	-0.120903	-1.10789
C	-0.245751	0.489677	0.193125
C	0.113045	-0.550873	1.23719
O	0.27248	-1.72894	0.923417
H	-0.223873	-1.11232	-1.127
H	0.47659	1.29217	0.275972
C	-1.67622	1.02217	0.428616
H	-2.41664	0.197392	0.354167
H	-1.77357	1.50701	1.42158
H	-1.92021	1.77609	-0.351397
N	0.257386	-0.134816	2.5108
C	0.603145	-1.05252	3.57121
H	0.128352	0.823203	2.74452
H	0.675434	-0.519335	4.54472
H	1.58359	-1.53977	3.36484
H	-0.166737	-1.85222	3.66553
C	3.46483	1.42481	2.2047
C	4.03518	1.25313	0.849565
O	3.46405	1.69431	-0.138148
H	2.4976	1.9677	2.13002
H	4.1592	2.01344	2.8404
H	3.28555	0.433929	2.67277
N	5.19383	0.594361	0.772427
C	5.84947	0.311628	-0.480071
C	6.65748	-0.961616	-0.314123
O	6.80596	-1.47337	0.793925
H	5.62599	0.205574	1.58109
H	5.10161	0.122328	-1.24
C	6.76444	1.48266	-0.900494
H	7.53841	1.67041	-0.126046
H	7.26435	1.28292	-1.8704
H	6.15345	2.40538	-1.00824
N	7.19475	-1.51003	-1.42164
C	7.9746	-2.72429	-1.3618
H	7.06019	-1.08355	-2.30995
H	8.32844	-3.01479	-2.37553
H	7.36641	-3.5618	-0.949543
H	8.86435	-2.58804	-0.705343
