44
  This energy is -2.3916 and Call times are: 66709
C	0.990177	-3.19432	0.963629
C	0.151455	-2.27688	0.159891
O	-0.533251	-2.6918	-0.765
H	0.885163	-4.2284	0.569274
H	0.664544	-3.17966	2.02499
H	2.05684	-2.89214	0.900245
N	0.189494	-0.986479	0.50019
C	-0.53862	0.0315812	-0.215325
C	0.218919	1.33892	-0.079099
O	1.17366	1.43644	0.68946
H	0.783188	-0.65807	1.22926
H	-0.562028	-0.219437	-1.26845
C	-1.97288	0.176567	0.338863
H	-1.94936	0.444431	1.4167
H	-2.54827	0.947869	-0.212985
H	-2.50582	-0.793894	0.23625
N	-0.187341	2.3786	-0.834116
C	0.476264	3.66015	-0.775613
H	-0.959335	2.27915	-1.45315
H	-0.00453321	4.38403	-1.46992
H	1.54869	3.56053	-1.06066
H	0.430637	4.0797	0.255426
C	3.41425	-2.25578	-1.81027
C	4.55638	-1.93597	-0.924593
O	5.19489	-2.82026	-0.370743
H	3.27022	-3.35769	-1.84049
H	3.61443	-1.89114	-2.83969
H	2.48669	-1.78257	-1.42456
N	4.84131	-0.641138	-0.767734
C	5.89623	-0.172793	0.0961881
C	5.52107	1.21041	0.593745
O	4.55361	1.80728	0.12525
H	4.28685	0.0686853	-1.19269
H	5.96278	-0.819926	0.961873
C	7.24573	-0.130916	-0.653697
H	7.18107	0.541087	-1.5359
H	8.06869	0.214942	0.00481318
H	7.49632	-1.15198	-1.0156
N	6.27899	1.75137	1.56787
C	5.99476	3.06057	2.10768
H	7.05531	1.25134	1.93716
H	6.72966	3.32783	2.89871
H	4.97416	3.08844	2.55364
H	6.04325	3.83453	1.30782
