44
  This energy is 0.1537 and Call times are: 66453
C	1.7936	-1.74498	2.41883
C	1.705	-1.02686	1.12747
O	2.7118	-0.708055	0.510103
H	2.86298	-1.89575	2.68263
H	1.29965	-2.73622	2.34018
H	1.30582	-1.15174	3.22084
N	0.476017	-0.750316	0.685326
C	0.23048	-0.0194191	-0.532894
C	-1.0911	0.711297	-0.387867
O	-1.8298	0.492637	0.570377
H	-0.332786	-0.980096	1.21909
H	1.00123	0.730327	-0.661179
C	0.192608	-0.970756	-1.74894
H	-0.604918	-1.73367	-1.62266
H	0.0180109	-0.418242	-2.69486
H	1.16676	-1.50053	-1.83092
N	-1.41702	1.60875	-1.33885
C	-2.65179	2.35593	-1.2817
H	-0.804457	1.77495	-2.1045
H	-2.73685	3.04221	-2.15291
H	-2.69965	2.96483	-0.349916
H	-3.52814	1.66812	-1.29003
C	4.74262	2.3558	1.83016
C	4.6619	1.27611	0.820744
O	5.60617	1.02615	0.0843465
H	5.73735	2.84761	1.76317
H	4.61721	1.93605	2.85036
H	3.95343	3.11427	1.64315
N	3.51048	0.602885	0.762646
C	3.26661	-0.445825	-0.196149
C	1.77682	-0.490915	-0.479109
O	0.987897	0.17108	0.192511
H	2.73659	0.845033	1.34085
H	3.7644	-0.202145	-1.12644
C	3.75743	-1.80852	0.339936
H	3.23936	-2.06391	1.28884
H	3.58782	-2.62197	-0.394957
H	4.84821	-1.74991	0.547532
N	1.35635	-1.27246	-1.49321
C	-0.0421982	-1.37411	-1.83947
H	2.01021	-1.7975	-2.02788
H	-0.185189	-2.0647	-2.69963
H	-0.451055	-0.376254	-2.11945
H	-0.633444	-1.76002	-0.977696
