44
  This energy is -1.8457 and Call times are: 70235
C	2.15837	-2.08352	1.7644
C	1.10487	-1.85751	0.74941
O	0.781402	-2.73927	-0.0343435
H	2.55948	-3.11446	1.65415
H	1.7371	-1.96907	2.78527
H	2.98745	-1.35837	1.62342
N	0.538995	-0.648338	0.740528
C	-0.469686	-0.265231	-0.215689
C	-0.376345	1.23423	-0.426516
O	0.344367	1.92717	0.289111
H	0.841594	0.0721395	1.35795
H	-0.258582	-0.738423	-1.16656
C	-1.87857	-0.655335	0.282405
H	-2.09978	-0.161793	1.25272
H	-2.66285	-0.378049	-0.451445
H	-1.92143	-1.75555	0.437446
N	-1.10229	1.77141	-1.42675
C	-1.07258	3.18825	-1.70579
H	-1.67639	1.19392	-1.99769
H	-1.73513	3.43386	-2.56482
H	-0.0380541	3.51776	-1.95569
H	-1.41592	3.77054	-0.82024
C	8.14728	3.24303	1.04963
C	7.99829	1.77482	1.16504
O	7.46253	1.2677	2.14084
H	7.72702	3.72734	1.95775
H	7.5995	3.61437	0.158126
H	9.22087	3.51304	0.962551
N	8.47994	1.04814	0.153929
C	8.44694	-0.393158	0.142984
C	9.61625	-0.88674	-0.688079
O	10.2962	-0.102335	-1.34697
H	8.94999	1.4731	-0.614401
H	8.58962	-0.761406	1.15128
C	7.11286	-0.910045	-0.438638
H	6.97098	-0.541155	-1.47683
H	7.06956	-2.01849	-0.439617
H	6.27094	-0.530156	0.180388
N	9.88353	-2.20743	-0.669054
C	10.9798	-2.76773	-1.42437
H	9.32462	-2.82582	-0.126581
H	11.0356	-3.869	-1.27835
H	11.9481	-2.32174	-1.10088
H	10.8522	-2.5641	-2.51221
