44
  This energy is -3.2896 and Call times are: 63480
C	0.78669	-3.3589	0.460013
C	0.643694	-2.1592	-0.395216
O	1.07859	-2.14132	-1.53844
H	1.335	-4.14663	-0.100977
H	-0.213709	-3.7491	0.742303
H	1.3581	-3.10816	1.37855
N	0.0217011	-1.11174	0.150988
C	-0.154932	0.140062	-0.542082
C	-0.21286	1.24895	0.491636
O	-0.278811	0.988623	1.69147
H	-0.290497	-1.12722	1.09659
H	0.708981	0.327039	-1.16764
C	-1.44493	0.123352	-1.39112
H	-2.33263	-0.0579413	-0.748346
H	-1.58497	1.07675	-1.94062
H	-1.3839	-0.700626	-2.13522
N	-0.180818	2.52065	0.0469148
C	-0.225828	3.64113	0.957231
H	-0.123194	2.7113	-0.927458
H	-0.188793	4.60274	0.399414
H	0.637555	3.61058	1.66073
H	-1.16281	3.62081	1.55955
C	3.23717	0.324564	1.41561
C	4.52294	-0.389503	1.24805
O	4.83927	-1.30689	1.99286
H	2.69206	-0.0999895	2.2865
H	2.6113	0.204265	0.506456
H	3.42016	1.40454	1.59792
N	5.30622	0.0249853	0.249522
C	6.60524	-0.54334	-0.0114525
C	7.46823	0.525184	-0.655721
O	6.98095	1.59412	-1.01856
H	5.05332	0.799886	-0.32269
H	7.07256	-0.812568	0.927562
C	6.4925	-1.77709	-0.933615
H	6.02273	-1.49926	-1.90117
H	7.4848	-2.23203	-1.13083
H	5.85033	-2.54252	-0.445687
N	8.78133	0.261987	-0.805713
C	9.68103	1.22097	-1.40326
H	9.15788	-0.607012	-0.50218
H	10.7178	0.819465	-1.43719
H	9.69112	2.16836	-0.817062
H	9.36399	1.46212	-2.44368
