44
  This energy is -3.871 and Call times are: 71646
C	-0.38162	1.85213	2.92176
C	-0.744099	0.719937	2.03978
O	-1.46614	-0.184752	2.4355
H	-0.845592	1.70255	3.92088
H	-0.753216	2.80612	2.49215
H	0.720994	1.90579	3.04198
N	-0.239711	0.745307	0.803925
C	-0.468228	-0.307187	-0.15451
C	0.720099	-0.355394	-1.09637
O	1.58065	0.522368	-1.06997
H	0.379657	1.46754	0.509603
H	-0.509176	-1.25803	0.362061
C	-1.77388	-0.0621214	-0.942194
H	-1.72818	0.908359	-1.48082
H	-1.96818	-0.872981	-1.67382
H	-2.62882	-0.0226339	-0.232355
N	0.799132	-1.39465	-1.95062
C	1.89675	-1.52739	-2.88003
H	0.0952322	-2.0972	-1.95427
H	1.78178	-2.44662	-3.49567
H	2.86695	-1.58912	-2.33582
H	1.94026	-0.649705	-3.56481
C	6.87896	0.874977	-3.02653
C	5.82146	0.20187	-2.23927
O	4.81654	-0.241347	-2.77789
H	6.57918	0.901981	-4.09669
H	7.83604	0.319616	-2.93531
H	7.02007	1.91591	-2.66649
N	6.02786	0.111596	-0.923351
C	5.06988	-0.477541	-0.021265
C	5.23409	0.177862	1.33706
O	6.17893	0.931613	1.56255
H	6.83168	0.51346	-0.494123
H	4.06857	-0.254561	-0.368076
C	5.27872	-2.00406	0.0852833
H	6.30232	-2.23314	0.451092
H	4.53827	-2.47136	0.766376
H	5.16182	-2.46162	-0.921353
N	4.30604	-0.0898613	2.27678
C	4.3769	0.492488	3.59664
H	3.5465	-0.699073	2.07422
H	3.52378	0.151098	4.22343
H	4.34534	1.6046	3.53748
H	5.32441	0.200556	4.10471
