44
  This energy is 0.1282 and Call times are: 65239
C	3.27219	-0.353804	1.13148
C	2.02785	0.430833	0.966897
O	1.8611	1.48569	1.56346
H	3.93971	0.16355	1.85442
H	3.79859	-0.445147	0.158183
H	3.03714	-1.36683	1.52087
N	1.11059	-0.0775693	0.140733
C	-0.167421	0.549278	-0.0879673
C	-1.16875	-0.533812	-0.442666
O	-0.799972	-1.68732	-0.655108
H	1.24369	-0.957652	-0.306042
H	-0.506527	1.01419	0.829362
C	-0.0746756	1.59342	-1.22217
H	0.263049	1.11499	-2.16614
H	-1.04926	2.09304	-1.39849
H	0.66937	2.37168	-0.944594
N	-2.4692	-0.186336	-0.506849
C	-3.49415	-1.15075	-0.831743
H	-2.74862	0.75116	-0.327687
H	-4.4981	-0.671899	-0.834284
H	-3.50326	-1.97997	-0.0877095
H	-3.31349	-1.59224	-1.83852
C	1.12492	-0.191314	0.000299995
C	2.45259	-0.598889	0.512496
O	2.55987	-1.27116	1.52884
H	0.334816	-0.574332	0.682122
H	0.959994	-0.612789	-1.01356
H	1.05537	0.916052	-0.0441464
N	3.51104	-0.191392	-0.19178
C	4.86826	-0.4728	0.20487
C	5.75502	0.640452	-0.320389
O	5.31301	1.48371	-1.09837
H	3.40952	0.389767	-0.994155
H	4.93538	-0.455964	1.28553
C	5.33172	-1.83946	-0.345303
H	5.27304	-1.85362	-1.45454
H	6.37062	-2.07393	-0.0350967
H	4.66397	-2.63799	0.0455779
N	7.03404	0.673374	0.10273
C	7.95027	1.69875	-0.339225
H	7.37224	-0.0152972	0.735527
H	8.95318	1.55432	0.119615
H	7.57658	2.70885	-0.0540526
H	8.06434	1.67296	-1.44714
