44
  This energy is 0.11 and Call times are: 72444
C	2.42113	-0.216166	2.4908
C	1.02451	-0.341409	2.01656
O	0.16889	-0.882298	2.70341
H	2.51265	-0.689292	3.49263
H	2.70317	0.854633	2.57195
H	3.11146	-0.72775	1.78737
N	0.760318	0.16308	0.809049
C	-0.541464	0.0786228	0.195216
C	-0.354585	0.0660417	-1.31026
O	0.746928	0.286569	-1.81001
H	1.47639	0.563837	0.244692
H	-1.00597	-0.860049	0.470454
C	-1.4302	1.26792	0.620607
H	-0.959101	2.23078	0.329066
H	-2.43997	1.20693	0.165451
H	-1.54675	1.2619	1.72638
N	-1.43326	-0.202705	-2.07201
C	-1.34997	-0.241682	-3.51344
H	-2.31525	-0.38262	-1.64916
H	-2.34143	-0.478891	-3.95838
H	-0.622655	-1.01823	-3.844
H	-1.01163	0.741154	-3.91432
C	4.90402	-1.88621	2.82816
C	4.52741	-0.929923	1.76287
O	3.35969	-0.615692	1.57821
H	3.98671	-2.23197	3.35242
H	5.57483	-1.39482	3.56389
H	5.41953	-2.76578	2.38806
N	5.52627	-0.440121	1.0248
C	5.31235	0.466668	-0.0754368
C	6.43381	0.267354	-1.07753
O	7.40456	-0.436135	-0.804665
H	6.46725	-0.736762	1.16051
H	4.38541	0.21141	-0.57368
C	5.27826	1.93077	0.414951
H	6.23303	2.19636	0.916867
H	5.10031	2.63781	-0.421081
H	4.45544	2.05153	1.15301
N	6.32085	0.880094	-2.27243
C	7.33602	0.743801	-3.29077
H	5.52596	1.44196	-2.47627
H	7.06079	1.3219	-4.20032
H	7.46176	-0.324894	-3.57949
H	8.31736	1.11904	-2.9202
