44
  This energy is -3.9908 and Call times are: 69629
C	-0.704432	-3.30099	-0.848471
C	-0.930035	-1.84424	-0.983096
O	-1.61763	-1.39113	-1.8877
H	-1.22638	-3.83136	-1.6744
H	-1.10632	-3.66248	0.121352
H	0.381261	-3.527	-0.905761
N	-0.343237	-1.06603	-0.0707171
C	-0.435327	0.372524	-0.0958639
C	0.816526	0.937937	0.548129
O	1.61426	0.202629	1.12663
H	0.246928	-1.44662	0.63549
H	-0.450384	0.711596	-1.12418
C	-1.69591	0.857816	0.652913
H	-1.67586	0.519154	1.71071
H	-1.78549	1.96322	0.628734
H	-2.59911	0.425536	0.169484
N	1.02244	2.26642	0.45447
C	2.18862	2.89314	1.0319
H	0.367672	2.84445	-0.021167
H	2.17694	3.99016	0.848498
H	3.12038	2.4735	0.588058
H	2.22275	2.72174	2.13217
C	6.92426	2.94658	0.676286
C	6.7654	1.47805	0.773025
O	7.67103	0.769529	1.19045
H	7.94571	3.22844	1.01252
H	6.17957	3.45553	1.3237
H	6.78773	3.27783	-0.374761
N	5.59027	0.981089	0.379983
C	5.30208	-0.431525	0.375286
C	4.28138	-0.702392	-0.71392
O	3.72509	0.224161	-1.30022
H	4.87752	1.56636	0.00408491
H	6.20066	-0.978574	0.118546
C	4.76312	-0.889193	1.74835
H	3.83541	-0.335766	2.00742
H	4.55048	-1.97783	1.76177
H	5.52297	-0.674086	2.5311
N	4.0168	-1.98852	-1.01705
C	3.06413	-2.34268	-2.04328
H	4.48005	-2.72444	-0.534454
H	2.98674	-3.44775	-2.14358
H	3.3728	-1.92219	-3.02776
H	2.05438	-1.94113	-1.79769
