44
  This energy is 0.1022 and Call times are: 72527
C	0.331233	2.44613	-2.45345
C	0.789758	1.21629	-1.76907
O	1.67246	0.517362	-2.24736
H	0.893301	2.56837	-3.40477
H	0.51503	3.3328	-1.81097
H	-0.752838	2.37471	-2.68319
N	0.187524	0.919649	-0.615077
C	0.495591	-0.266609	0.144164
C	-0.744588	-0.666147	0.921262
O	-1.7248	0.074648	0.967297
H	-0.557665	1.47628	-0.259094
H	0.724682	-1.07698	-0.536603
C	1.67872	-0.0152048	1.1045
H	1.44012	0.80904	1.80999
H	1.93458	-0.925279	1.68486
H	2.57287	0.283508	0.514914
N	-0.732819	-1.85951	1.54718
C	-1.86965	-2.32626	2.30609
H	0.0680624	-2.44682	1.49497
H	-1.66569	-3.32827	2.74381
H	-2.77071	-2.40481	1.65556
H	-2.10385	-1.62166	3.13666
C	-0.929991	0.554198	-0.201945
C	0.425372	0.541792	-0.796917
O	0.588993	0.675357	-2.00182
H	-1.68427	0.678712	-1.00905
H	-1.02628	1.398	0.51323
H	-1.12442	-0.402539	0.327132
N	1.44384	0.375832	0.0501735
C	2.8164	0.29942	-0.384332
C	3.58046	-0.554437	0.610014
O	3.06027	-0.908971	1.66615
H	1.29221	0.227439	1.02323
H	2.86037	-0.203649	-1.34225
C	3.44309	1.70754	-0.482854
H	3.40776	2.22	0.50212
H	4.49579	1.66306	-0.829811
H	2.8633	2.31723	-1.2098
N	4.83901	-0.913345	0.288728
C	5.64074	-1.72941	1.17046
H	5.24125	-0.620141	-0.572267
H	6.64457	-1.91605	0.729176
H	5.14896	-2.71269	1.35099
H	5.7783	-1.2263	2.15489
