44
  This energy is -5.1092 and Call times are: 63753
C	0.846978	3.07334	1.39638
C	-0.142532	2.12195	0.842426
O	-1.34411	2.32735	0.944568
H	0.312118	3.91415	1.88918
H	1.48382	3.48008	0.582911
H	1.48737	2.56514	2.14786
N	0.350087	1.03992	0.235047
C	-0.487909	0.00384042	-0.315285
C	0.280971	-1.303	-0.264823
O	1.47279	-1.32125	0.0367489
H	1.32997	0.866236	0.195821
H	-1.36576	-0.114127	0.307685
C	-0.895086	0.336797	-1.76738
H	0.00482648	0.447525	-2.4092
H	-1.55192	-0.44679	-2.1976
H	-1.4493	1.30064	-1.78131
N	-0.390704	-2.43518	-0.55301
C	0.256716	-3.72602	-0.525365
H	-1.35576	-2.40064	-0.790809
H	-0.46211	-4.53226	-0.790853
H	0.663771	-3.93962	0.489503
H	1.10227	-3.75725	-1.25007
C	3.48836	-1.69375	-2.71844
C	4.31705	-0.612995	-2.13843
O	5.0522	0.0672145	-2.84077
H	3.67772	-1.75501	-3.81217
H	2.41137	-1.4817	-2.55149
H	3.74955	-2.66771	-2.25341
N	4.21599	-0.430357	-0.819791
C	4.99144	0.553382	-0.106006
C	5.19117	0.0586538	1.31418
O	4.59009	-0.931472	1.72655
H	3.64414	-1.01889	-0.255455
H	5.97113	0.63421	-0.560209
C	4.27936	1.92385	-0.106873
H	3.27853	1.84371	0.368478
H	4.87311	2.69331	0.427832
H	4.13659	2.26258	-1.15626
N	6.05315	0.736868	2.09715
C	6.31124	0.336583	3.46072
H	6.53322	1.53318	1.74432
H	7.0486	1.019	3.93804
H	6.71912	-0.699617	3.49539
H	5.37305	0.35855	4.06109
