44
  This energy is -1.0259 and Call times are: 69789
C	1.54407	0.282005	3.10628
C	0.652046	-0.415459	2.15288
O	0.238238	-1.54349	2.38249
H	1.74726	-0.383506	3.97328
H	1.06053	1.21192	3.4726
H	2.50683	0.535323	2.61433
N	0.33326	0.252014	1.04147
C	-0.490104	-0.311884	0.00096767
C	-0.0903175	0.325727	-1.31629
O	0.681422	1.28247	-1.34429
H	0.710909	1.15337	0.849626
H	-0.287502	-1.3726	-0.0794741
C	-1.98757	-0.0668457	0.288715
H	-2.1979	1.02154	0.360868
H	-2.63262	-0.508436	-0.498324
H	-2.2559	-0.535123	1.26086
N	-0.603705	-0.199177	-2.44631
C	-0.275734	0.338066	-3.74631
H	-1.2233	-0.975936	-2.40366
H	-0.796436	-0.229161	-4.54902
H	0.821464	0.278681	-3.93044
H	-0.580455	1.40724	-3.81803
C	3.57244	-2.48353	-1.81546
C	3.75555	-1.6725	-0.590768
O	2.92784	-1.69017	0.309784
H	2.61027	-3.03644	-1.74935
H	4.4012	-3.21532	-1.91731
H	3.54827	-1.82588	-2.70988
N	4.86293	-0.929146	-0.531324
C	5.15838	-0.0554292	0.576775
C	6.00756	1.09131	0.0615574
O	6.46296	1.07419	-1.08038
H	5.50708	-0.893839	-1.29006
H	4.23594	0.369646	0.952327
C	5.89945	-0.817038	1.69749
H	6.85099	-1.24439	1.31541
H	6.12033	-0.158386	2.56231
H	5.263	-1.65629	2.05376
N	6.23421	2.12535	0.895465
C	7.02617	3.26336	0.490609
H	5.85385	2.12298	1.81438
H	7.09649	4.00682	1.31496
H	6.57097	3.7637	-0.39468
H	8.05802	2.94618	0.215257
