44
  This energy is 0.1497 and Call times are: 65846
C	-2.50646	0.826407	-2.26878
C	-1.84025	0.967061	-0.954432
O	-2.14171	1.86926	-0.185295
H	-3.24697	1.64595	-2.39479
H	-3.03541	-0.148026	-2.32741
H	-1.75753	0.889985	-3.08619
N	-0.901656	0.0628033	-0.665065
C	-0.136736	0.094806	0.556587
C	1.21521	-0.537609	0.284832
O	1.4385	-1.11443	-0.777773
H	-0.638661	-0.641301	-1.31847
H	0.0401385	1.12475	0.840435
C	-0.870305	-0.660086	1.68674
H	-1.04263	-1.71947	1.40032
H	-0.297854	-0.630768	2.63646
H	-1.8601	-0.185138	1.86305
N	2.15719	-0.43562	1.24311
C	3.47481	-1.00175	1.07113
H	1.95902	0.0385051	2.09458
H	4.10424	-0.812719	1.96852
H	3.9824	-0.553697	0.186332
H	3.41193	-2.10264	0.91229
C	7.36685	0.68274	-0.557611
C	6.19326	-0.217734	-0.612283
O	6.23068	-1.26916	-1.23639
H	8.19269	0.246796	-1.16077
H	7.711	0.799613	0.491509
H	7.10491	1.67844	-0.973594
N	5.10588	0.183672	0.050191
C	3.87342	-0.564372	0.0541802
C	2.7279	0.412381	0.242094
O	2.94384	1.58982	0.522642
H	5.07731	1.06153	0.519659
H	3.7393	-1.03702	-0.910826
C	3.87352	-1.62182	1.17981
H	4.00053	-1.13647	2.17094
H	2.93541	-2.21381	1.18458
H	4.72452	-2.32086	1.02657
N	1.4744	-0.0557848	0.0822412
C	0.322054	0.801346	0.235889
H	1.31991	-1.0107	-0.148731
H	-0.617651	0.231397	0.0645726
H	0.358957	1.64344	-0.492667
H	0.287919	1.23386	1.262
