44
  This energy is 0.1462 and Call times are: 67424
C	2.89846	0.903322	1.70166
C	2.15296	0.626108	0.45325
O	2.62389	0.905667	-0.640587
H	3.86739	1.38732	1.45107
H	3.09973	-0.0435061	2.24549
H	2.31345	1.58634	2.35308
N	0.950861	0.0622731	0.592642
C	0.0898714	-0.227818	-0.526779
C	-1.34764	-0.169348	-0.045439
O	-1.60723	-0.0712454	1.15235
H	0.563755	-0.121854	1.49159
H	0.209847	0.542178	-1.27867
C	0.406066	-1.61818	-1.1202
H	0.272931	-2.40959	-0.352089
H	-0.240971	-1.84745	-1.99158
H	1.46502	-1.64062	-1.45851
N	-2.32115	-0.220178	-0.975884
C	-3.71792	-0.165435	-0.612251
H	-2.09129	-0.29543	-1.94055
H	-4.36233	-0.220461	-1.5172
H	-3.94724	0.783779	-0.0758972
H	-3.98282	-1.01404	0.0591954
C	1.67043	-0.728602	-1.96364
C	3.03244	-1.03158	-1.46937
O	3.56115	-2.11184	-1.69276
H	1.27171	-1.6128	-2.50684
H	1.69917	0.137056	-2.65831
H	0.997029	-0.496479	-1.11175
N	3.63894	-0.0677451	-0.772543
C	4.94798	-0.230453	-0.190744
C	5.03335	0.656328	1.03722
O	4.14797	1.47176	1.28798
H	3.17966	0.790991	-0.563982
H	5.06636	-1.25418	0.141801
C	6.05232	0.140779	-1.20458
H	5.93757	1.19418	-1.53806
H	7.06533	0.00639643	-0.772986
H	5.96572	-0.515212	-2.09817
N	6.10532	0.510228	1.84069
C	6.26933	1.30657	3.03447
H	6.8093	-0.157798	1.62337
H	7.21254	1.03847	3.55955
H	5.41915	1.1429	3.73568
H	6.30453	2.39103	2.78178
