44
  This energy is 0.1125 and Call times are: 70577
C	2.93932	1.65273	-0.861156
C	1.84585	0.699537	-1.15593
O	1.69152	0.241039	-2.27948
H	3.51378	1.85191	-1.79185
H	3.62521	1.22486	-0.100096
H	2.52127	2.61026	-0.485032
N	1.04816	0.377323	-0.135023
C	-0.0841204	-0.503836	-0.276672
C	-1.11796	-0.1165	0.763857
O	-0.849943	0.697735	1.64528
H	1.16147	0.790343	0.764111
H	-0.534163	-0.35354	-1.25007
C	0.338534	-1.97843	-0.0972875
H	0.79069	-2.13542	0.905182
H	-0.522091	-2.66786	-0.217818
H	1.10108	-2.23751	-0.86394
N	-2.33491	-0.689179	0.679561
C	-3.38385	-0.377679	1.62236
H	-2.53415	-1.34266	-0.0431706
H	-4.30813	-0.949311	1.38537
H	-3.6271	0.709205	1.59435
H	-3.06891	-0.634335	2.65971
C	4.77031	-2.9808	1.62302
C	5.01909	-1.96563	0.57484
O	6.0468	-1.97943	-0.0885246
H	5.63991	-3.67106	1.67958
H	3.86045	-3.56828	1.37854
H	4.63794	-2.48801	2.60928
N	4.0673	-1.04552	0.401983
C	4.18554	0.0310563	-0.549624
C	3.37843	1.20803	-0.0349474
O	2.6387	1.08638	0.939583
H	3.25486	-1.02306	0.977554
H	5.21957	0.34803	-0.60375
C	3.67925	-0.405234	-1.94195
H	2.61537	-0.720528	-1.88897
H	3.77794	0.410735	-2.68691
H	4.27875	-1.27246	-2.29528
N	3.50972	2.38512	-0.677774
C	2.78546	3.56151	-0.256191
H	4.11628	2.46495	-1.46186
H	3.0279	4.42798	-0.910161
H	3.04836	3.82973	0.792723
H	1.68658	3.384	-0.302057
