44
  This energy is -3.5444 and Call times are: 62974
C	2.24845	1.30824	-2.31207
C	1.63575	1.27507	-0.964986
O	2.1223	1.90005	-0.0327359
H	3.1608	1.94288	-2.28507
H	1.53452	1.73631	-3.04678
H	2.53339	0.282597	-2.62823
N	0.536226	0.529708	-0.83133
C	-0.147212	0.364913	0.427365
C	-0.833798	-0.987894	0.419203
O	-0.88826	-1.66032	-0.608707
H	0.175544	-0.00590264	-1.58955
H	0.579888	0.352787	1.22974
C	-1.17785	1.49389	0.647477
H	-1.93015	1.50007	-0.169854
H	-1.70098	1.38593	1.61969
H	-0.654416	2.47488	0.64181
N	-1.37001	-1.42394	1.57608
C	-2.03838	-2.70124	1.66537
H	-1.3123	-0.867455	2.39831
H	-2.41021	-2.87915	2.69847
H	-1.34231	-3.52844	1.39611
H	-2.90667	-2.74007	0.968448
C	3.90734	0.665159	2.81005
C	5.19318	0.696885	2.07741
O	6.14321	1.34523	2.49394
H	3.98373	1.30772	3.714
H	3.67236	-0.373001	3.12589
H	3.08947	1.04897	2.1644
N	5.25076	-0.0137462	0.948661
C	6.41947	-0.0461823	0.105089
C	5.96671	-0.297645	-1.32087
O	4.79984	-0.59628	-1.56774
H	4.45619	-0.503402	0.601155
H	6.90097	0.923564	0.124375
C	7.40058	-1.1472	0.563815
H	6.91032	-2.14359	0.534148
H	8.311	-1.17311	-0.0694299
H	7.71236	-0.947348	1.61224
N	6.88477	-0.173401	-2.29951
C	6.54464	-0.388212	-3.68671
H	7.82306	0.0729924	-2.08044
H	7.43427	-0.238755	-4.33745
H	5.75	0.322251	-4.01086
H	6.16597	-1.42427	-3.84268
