44
  This energy is -1.8261 and Call times are: 65185
C	-1.79237	2.89065	-0.737725
C	-1.10457	1.99147	0.215977
O	-0.86796	2.34643	1.36247
H	-2.00485	3.86138	-0.23932
H	-2.75138	2.43811	-1.06675
H	-1.14779	3.07473	-1.623
N	-0.761043	0.787023	-0.246268
C	-0.0484047	-0.180847	0.549932
C	0.769746	-1.05185	-0.384704
O	0.624773	-0.977269	-1.60337
H	-0.923847	0.527715	-1.19396
H	0.646317	0.334485	1.20141
C	-1.02725	-1.04371	1.37611
H	-1.73344	-1.58082	0.707642
H	-0.489915	-1.78368	2.00399
H	-1.62084	-0.384921	2.04693
N	1.66082	-1.89783	0.16876
C	2.48745	-2.76149	-0.641764
H	1.76672	-1.94095	1.15669
H	3.15443	-3.38082	-0.0023925
H	3.12269	-2.16161	-1.33305
H	1.85771	-3.44444	-1.2567
C	4.83776	-0.222468	3.04963
C	5.83386	-0.710944	2.06967
O	6.64885	-1.57195	2.37111
H	4.99196	-0.742156	4.02019
H	3.80955	-0.434088	2.68803
H	4.95732	0.870623	3.20432
N	5.79027	-0.160076	0.854335
C	6.72186	-0.501517	-0.191662
C	6.87435	0.703217	-1.10102
O	6.13833	1.68065	-0.980197
H	5.14764	0.568892	0.636389
H	7.6924	-0.700682	0.245377
C	6.22725	-1.72564	-0.992994
H	5.23637	-1.51805	-1.45029
H	6.94277	-2.00699	-1.79261
H	6.11523	-2.59294	-0.306277
N	7.84633	0.663642	-2.0336
C	8.06968	1.7659	-2.93986
H	8.43452	-0.134328	-2.11332
H	8.91259	1.54264	-3.63044
H	8.31542	2.69466	-2.37569
H	7.15896	1.96357	-3.55032
