44
  This energy is -7.386 and Call times are: 64011
C	1.10444	2.54852	2.09712
C	0.608725	1.17282	1.86725
O	0.63434	0.33381	2.75709
H	1.48195	2.63355	3.1393
H	0.282587	3.28075	1.95174
H	1.93314	2.77902	1.39482
N	0.140683	0.907076	0.645492
C	-0.335723	-0.397452	0.258449
C	-0.114203	-0.558352	-1.23373
O	0.24127	0.394964	-1.92405
H	0.164225	1.58875	-0.0802066
H	0.255781	-1.15588	0.755991
C	-1.8316	-0.563635	0.604814
H	-2.44008	0.207681	0.0862918
H	-2.20686	-1.56912	0.324259
H	-1.97126	-0.434035	1.70028
N	-0.312596	-1.77987	-1.76718
C	-0.120915	-2.02928	-3.17687
H	-0.596147	-2.53985	-1.19177
H	-0.332958	-3.09371	-3.42031
H	0.928099	-1.80347	-3.47663
H	-0.799365	-1.38839	-3.78523
C	3.0858	2.69797	-1.86503
C	3.98823	2.10697	-0.851383
O	4.94631	2.7308	-0.416247
H	3.44562	3.71644	-2.1279
H	2.0544	2.77433	-1.46113
H	3.07804	2.07178	-2.78203
N	3.69769	0.867713	-0.448624
C	4.50765	0.144902	0.500096
C	4.36511	-1.33757	0.211079
O	3.52913	-1.74487	-0.593255
H	2.93833	0.357462	-0.842159
H	5.54856	0.403873	0.351586
C	4.07289	0.458443	1.94852
H	3.00801	0.183157	2.1044
H	4.6981	-0.0814577	2.68888
H	4.1779	1.54953	2.13517
N	5.19025	-2.18315	0.859272
C	5.13142	-3.61017	0.64408
H	5.86299	-1.83433	1.50334
H	5.88931	-4.13351	1.26775
H	5.32802	-3.85462	-0.424974
H	4.12459	-4.0065	0.909328
