44
  This energy is 0.1038 and Call times are: 67395
C	3.40143	0.614624	-0.406407
C	2.25655	-0.304693	-0.218701
O	2.38785	-1.51395	-0.348589
H	4.30378	0.0261956	-0.681005
H	3.60589	1.16823	0.534048
H	3.18235	1.33744	-1.22043
N	1.08769	0.259344	0.0943744
C	-0.125132	-0.501002	0.266106
C	-1.29796	0.391898	-0.0927157
O	-1.13539	1.59338	-0.297013
H	0.987372	1.24826	0.156399
H	-0.127532	-1.33148	-0.428827
C	-0.256358	-1.00974	1.71842
H	-0.264557	-0.157564	2.431
H	-1.17945	-1.6084	1.85997
H	0.61635	-1.65435	1.96175
N	-2.51418	-0.180869	-0.186352
C	-3.68781	0.588615	-0.527943
H	-2.62512	-1.15533	-0.0214736
H	-4.59005	-0.0613419	-0.554999
H	-3.56827	1.06408	-1.5284
H	-3.8596	1.39634	0.219856
C	4.53788	0.798876	-3.38627
C	3.80457	0.546559	-2.12542
O	2.61343	0.805682	-2.02318
H	3.84437	1.24581	-4.13136
H	4.9378	-0.15346	-3.79354
H	5.37603	1.50481	-3.20679
N	4.51371	0.0282569	-1.11999
C	3.94917	-0.232305	0.180763
C	5.05869	-0.119125	1.20922
O	6.23233	-0.00846771	0.859884
H	5.49174	-0.139104	-1.20537
H	3.21637	0.530831	0.411523
C	3.30476	-1.63494	0.23159
H	4.05853	-2.41894	0.00527071
H	2.85429	-1.84208	1.22391
H	2.50129	-1.69766	-0.534467
N	4.7091	-0.13593	2.51057
C	5.69587	-0.0282855	3.55979
H	3.75385	-0.222077	2.77355
H	5.21119	-0.0614833	4.5604
H	6.25744	0.930134	3.47402
H	6.42902	-0.864772	3.49718
