44
  This energy is -6.083 and Call times are: 63064
C	1.39603	-3.06826	0.865763
C	1.33477	-1.85764	0.0161938
O	2.2266	-1.5969	-0.779453
H	2.33989	-3.61686	0.655903
H	0.536121	-3.7349	0.644624
H	1.37664	-2.78398	1.93903
N	0.262502	-1.07751	0.1712
C	0.0827995	0.155825	-0.553477
C	-0.760789	1.086	0.29781
O	-1.30099	0.682349	1.3259
H	-0.435125	-1.28147	0.852069
H	1.04556	0.63126	-0.693761
C	-0.598982	-0.0989854	-1.91564
H	-1.59132	-0.577124	-1.77178
H	-0.730395	0.841376	-2.4892
H	0.0317643	-0.788228	-2.51851
N	-0.886746	2.36437	-0.109533
C	-1.66534	3.3231	0.639339
H	-0.438774	2.67333	-0.941961
H	-1.64671	4.31836	0.143021
H	-1.26018	3.4382	1.67078
H	-2.72572	2.9911	0.72001
C	4.29482	-0.803042	-3.24893
C	5.17963	-0.112745	-2.28364
O	6.224	0.411614	-2.64523
H	4.75152	-0.759979	-4.26156
H	3.30221	-0.306609	-3.28094
H	4.16663	-1.86685	-2.95747
N	4.77461	-0.0998318	-1.01157
C	5.54932	0.4955	0.0485993
C	5.22593	-0.234984	1.33832
O	4.30669	-1.05006	1.38698
H	3.9424	-0.566388	-0.725874
H	6.60296	0.345733	-0.151463
C	5.2326	2.00094	0.184913
H	4.15375	2.1546	0.400612
H	5.83306	2.4738	0.988882
H	5.46928	2.51395	-0.772762
N	5.98546	0.0362955	2.41792
C	5.75538	-0.614264	3.68678
H	6.72738	0.695861	2.35789
H	6.48293	-0.25803	4.44901
H	5.86436	-1.71859	3.58745
H	4.72656	-0.400819	4.05709
