44
  This energy is 0.202 and Call times are: 71618
C	-2.65143	1.89026	-1.22862
C	-1.8548	0.643859	-1.17381
O	-2.25538	-0.386909	-1.69675
H	-3.60018	1.69607	-1.77456
H	-2.0857	2.6829	-1.76192
H	-2.89232	2.23596	-0.201214
N	-0.689663	0.712269	-0.525621
C	0.175196	-0.428026	-0.351531
C	0.963142	-0.232743	0.930093
O	0.92788	0.83756	1.53418
H	-0.396182	1.54779	-0.0699526
H	-0.428367	-1.31839	-0.226624
C	1.12977	-0.585341	-1.55539
H	1.75659	0.323616	-1.67756
H	1.7915	-1.46809	-1.4397
H	0.531552	-0.718948	-2.4831
N	1.69083	-1.27332	1.38142
C	2.46826	-1.18209	2.59528
H	1.70354	-2.13268	0.880996
H	2.99505	-2.14057	2.79786
H	1.81195	-0.952126	3.4657
H	3.23017	-0.373346	2.51421
C	6.4917	1.63568	2.29538
C	6.28897	0.874731	1.04198
O	7.187	0.758982	0.219437
H	7.52336	2.04955	2.311
H	6.35845	0.969342	3.17343
H	5.76693	2.47486	2.35506
N	5.08196	0.332091	0.865782
C	4.72087	-0.400103	-0.32252
C	3.22557	-0.253276	-0.532464
O	2.51645	0.263619	0.328744
H	4.34853	0.46954	1.52536
H	5.21206	0.0444568	-1.1791
C	5.10542	-1.89006	-0.19065
H	4.59354	-2.34928	0.681781
H	4.84506	-2.46185	-1.10486
H	6.20249	-1.97309	-0.0297678
N	2.71044	-0.700499	-1.69464
C	1.2993	-0.598086	-1.98505
H	3.30084	-1.11209	-2.38101
H	1.0727	-1.02042	-2.98881
H	0.97159	0.466661	-1.97071
H	0.700726	-1.15375	-1.22736
