44
  This energy is -3.168 and Call times are: 63452
C	-0.258704	-3.11872	-1.52295
C	-0.317363	-1.64016	-1.56264
O	-0.383943	-1.03761	-2.62514
H	-0.267857	-3.51467	-2.56171
H	-1.13725	-3.52205	-0.976854
H	0.673651	-3.45134	-1.01979
N	-0.291135	-1.01336	-0.384156
C	-0.298137	0.423282	-0.263478
C	0.42318	0.793742	1.01871
O	0.748347	-0.0704212	1.83063
H	-0.195477	-1.51595	0.470315
H	0.261843	0.85346	-1.08445
C	-1.74299	0.968652	-0.2489
H	-2.3148	0.535695	0.5994
H	-1.7615	2.075	-0.170293
H	-2.25415	0.678959	-1.1929
N	0.698916	2.09627	1.22708
C	1.38703	2.54245	2.41604
H	0.43146	2.78038	0.556615
H	1.52009	3.64668	2.40238
H	2.39298	2.0691	2.48863
H	0.810482	2.26983	3.3295
C	8.62659	3.01095	1.07327
C	8.4134	1.55269	1.21175
O	9.0672	0.889922	2.00529
H	9.43843	3.33051	1.76222
H	7.69735	3.56	1.3337
H	8.92163	3.25732	0.0314836
N	7.47844	1.01242	0.426677
C	7.18745	-0.399594	0.416997
C	6.67307	-0.767066	-0.962112
O	6.41114	0.10404	-1.78932
H	6.98309	1.55789	-0.243358
H	8.10349	-0.954206	0.57795
C	6.14233	-0.754917	1.49714
H	5.19874	-0.194114	1.32635
H	5.92006	-1.84164	1.50902
H	6.53659	-0.470132	2.49704
N	6.52383	-2.07605	-1.24549
C	6.0455	-2.52081	-2.53373
H	6.74489	-2.76635	-0.564539
H	5.99198	-3.63119	-2.57143
H	6.72522	-2.17493	-3.34591
H	5.02881	-2.11345	-2.73756
