44
  This energy is -5.4046 and Call times are: 62819
C	2.09326	-0.515582	-2.73224
C	0.750191	-0.348852	-2.13265
O	-0.23963	-0.185342	-2.8326
H	2.01256	-0.446809	-3.83887
H	2.51183	-1.5082	-2.46343
H	2.77528	0.282983	-2.37135
N	0.686759	-0.38504	-0.799591
C	-0.542631	-0.194939	-0.0708791
C	-0.20284	0.398616	1.2833
O	0.964851	0.48273	1.65898
H	1.50681	-0.477923	-0.242136
H	-1.15974	0.525483	-0.593178
C	-1.2964	-1.53233	0.0978384
H	-0.667717	-2.26835	0.642881
H	-2.25158	-1.39692	0.64539
H	-1.52771	-1.95233	-0.905378
N	-1.22277	0.834479	2.04867
C	-0.995359	1.41894	3.34977
H	-2.16058	0.76169	1.72575
H	-1.95816	1.71474	3.82174
H	-0.352901	2.32534	3.26635
H	-0.483178	0.69348	4.02247
C	5.95843	-2.9179	-1.66534
C	5.6627	-2.16208	-0.427424
O	5.52735	-2.7332	0.645853
H	6.00536	-4.00349	-1.43049
H	6.93559	-2.59834	-2.08462
H	5.15992	-2.74722	-2.41789
N	5.55199	-0.837555	-0.552944
C	5.2247	0.0270221	0.553375
C	4.50608	1.2454	0.00500388
O	4.43915	1.44489	-1.20637
H	5.62425	-0.391304	-1.44035
H	4.53543	-0.483761	1.21415
C	6.49772	0.44848	1.31956
H	7.2006	0.981821	0.644614
H	6.25763	1.10329	2.18218
H	7.0115	-0.459176	1.70495
N	3.94104	2.08935	0.890721
C	3.23168	3.27199	0.461377
H	4.00228	1.90888	1.86681
H	2.84011	3.83528	1.33694
H	2.372	2.99868	-0.192483
H	3.90464	3.94577	-0.11681
