44
  This energy is -2.2358 and Call times are: 63593
C	1.37954	-0.982486	3.04044
C	0.249238	-0.492162	2.21998
O	-0.887973	-0.451581	2.66889
H	1.00172	-1.29027	4.03965
H	2.1332	-0.178081	3.17336
H	1.85607	-1.85803	2.55113
N	0.542737	-0.104582	0.976595
C	-0.457263	0.35541	0.0454843
C	0.0210884	0.0360969	-1.35836
O	1.1637	-0.372313	-1.55671
H	1.46626	-0.181988	0.611939
H	-1.37556	-0.195449	0.206463
C	-0.701076	1.87236	0.202522
H	0.238381	2.43865	0.0270991
H	-1.47907	2.23614	-0.499555
H	-1.04268	2.08377	1.23933
N	-0.851671	0.208266	-2.37062
C	-0.487312	-0.0750583	-3.73925
H	-1.77318	0.535693	-2.18983
H	-1.3402	0.128821	-4.42353
H	-0.193341	-1.14352	-3.85432
H	0.374622	0.556099	-4.05525
C	6.14698	-1.58406	-2.98096
C	6.1085	-1.52371	-1.50244
O	6.39207	-2.49958	-0.821491
H	6.44007	-2.60809	-3.29925
H	6.89008	-0.858949	-3.37436
H	5.14538	-1.35048	-3.39967
N	5.74805	-0.355814	-0.965341
C	5.62308	-0.155826	0.45696
C	4.58344	0.923464	0.693291
O	4.1303	1.57747	-0.244072
H	5.48057	0.417401	-1.53319
H	5.25375	-1.06517	0.914468
C	6.97724	0.251507	1.07789
H	7.35146	1.19007	0.616269
H	6.89722	0.394962	2.17495
H	7.72463	-0.549059	0.88594
N	4.17309	1.12968	1.96022
C	3.18317	2.13149	2.28054
H	4.54836	0.587674	2.70485
H	2.97954	2.14766	3.37394
H	2.22659	1.92253	1.74896
H	3.53451	3.14333	1.97412
