44
  This energy is 0.1371 and Call times are: 67848
C	-0.422578	0.653028	-3.3923
C	-0.92227	0.166244	-2.08673
O	-2.10841	-0.0780919	-1.91413
H	-1.27595	0.754453	-4.09753
H	0.309092	-0.0673396	-3.81476
H	0.0629326	1.64429	-3.27076
N	-0.011952	0.0146292	-1.122
C	-0.352356	-0.409746	0.213138
C	0.6666	0.178747	1.17072
O	1.67307	0.745403	0.749254
H	0.943389	0.25666	-1.26557
H	-1.31953	-0.00330239	0.48148
C	-0.365076	-1.9507	0.315829
H	0.629948	-2.36752	0.0508306
H	-0.639401	-2.29013	1.33566
H	-1.11192	-2.36	-0.399044
N	0.422755	0.0643357	2.49112
C	1.33316	0.598558	3.477
H	-0.399142	-0.393995	2.81282
H	0.957148	0.404297	4.50564
H	1.4497	1.69909	3.34847
H	2.33935	0.13085	3.37712
C	6.13438	-0.417821	-0.905594
C	4.93119	0.42318	-0.715286
O	4.99794	1.64369	-0.763348
H	7.01862	0.236839	-1.06493
H	6.00723	-1.07242	-1.79333
H	6.30904	-1.04503	-0.00605038
N	3.78516	-0.223115	-0.488789
C	2.53939	0.459323	-0.242031
C	1.677	-0.431744	0.631958
O	2.00839	-1.59168	0.86954
H	3.75409	-1.21557	-0.411826
H	2.73371	1.36716	0.315368
C	1.81522	0.782105	-1.56741
H	1.60623	-0.149843	-2.13472
H	0.861158	1.31999	-1.39142
H	2.46775	1.42838	-2.1942
N	0.546542	0.0967335	1.14067
C	-0.333824	-0.674059	1.98743
H	0.297294	1.03848	0.940504
H	-1.20815	-0.063968	2.30457
H	0.202554	-1.01918	2.90093
H	-0.710504	-1.57305	1.44792
