44
  This energy is 0.1822 and Call times are: 65129
C	2.66335	-0.257914	2.22547
C	2.10819	-0.245039	0.853328
O	2.84	-0.184801	-0.125056
H	3.77168	-0.18837	2.17392
H	2.38607	-1.20099	2.74166
H	2.27549	0.607367	2.80335
N	0.77822	-0.30007	0.750714
C	0.0900708	-0.252663	-0.515289
C	-1.27793	0.362282	-0.287298
O	-1.69296	0.570624	0.851147
H	0.194125	-0.30745	1.55734
H	0.628826	0.400393	-1.19049
C	-0.0460427	-1.66617	-1.12249
H	-0.607832	-2.33367	-0.434832
H	-0.562023	-1.64139	-2.10416
H	0.966623	-2.0999	-1.27328
N	-2.01107	0.676611	-1.37345
C	-3.32221	1.27067	-1.25436
H	-1.65653	0.504274	-2.28651
H	-3.76327	1.45471	-2.25877
H	-3.26527	2.24282	-0.713116
H	-4.00773	0.599721	-0.687767
C	4.33874	0.594359	2.84721
C	4.87988	-0.307705	1.80576
O	4.77896	-1.52269	1.90599
H	3.88708	-0.0135034	3.66106
H	3.55678	1.25305	2.41431
H	5.1525	1.21801	3.27375
N	5.47855	0.277949	0.766055
C	6.09118	-0.468592	-0.304418
C	7.21937	0.367387	-0.878772
O	7.37093	1.53924	-0.53892
H	5.58908	1.26658	0.718646
H	6.53173	-1.37266	0.0970893
C	5.05811	-0.810105	-1.40049
H	4.61353	0.117435	-1.8201
H	5.51456	-1.3969	-2.22381
H	4.23793	-1.41518	-0.956048
N	8.04759	-0.222992	-1.76281
C	9.15238	0.492323	-2.35773
H	7.91132	-1.17334	-2.02233
H	9.71504	-0.164411	-3.05727
H	9.85593	0.85204	-1.5723
H	8.78679	1.37827	-2.9257
