44
  This energy is 0.1061 and Call times are: 66348
C	-3.38953	0.707095	-0.351787
C	-1.97187	1.12617	-0.27595
O	-1.63236	2.2656	-0.563779
H	-4.00621	1.56048	-0.708606
H	-3.75112	0.396995	0.651129
H	-3.50104	-0.138783	-1.06252
N	-1.09849	0.196491	0.118113
C	0.319837	0.442035	0.199457
C	1.04136	-0.872683	-0.0296124
O	0.419671	-1.9324	-0.076629
H	-1.38453	-0.738053	0.30962
H	0.612398	1.11375	-0.59794
C	0.699052	1.03549	1.57396
H	0.408653	0.342031	2.39177
H	1.78671	1.24194	1.64401
H	0.153518	1.99276	1.72353
N	2.37916	-0.832622	-0.186826
C	3.14972	-2.03278	-0.414925
H	2.86407	0.0348779	-0.149684
H	4.23072	-1.79224	-0.518902
H	2.81344	-2.54449	-1.3457
H	3.02875	-2.74471	0.433405
C	1.54513	1.72748	2.8665
C	2.25959	1.64353	1.5728
O	2.7275	2.64149	1.04218
H	1.51518	2.78708	3.20144
H	2.07162	1.12258	3.63439
H	0.50452	1.35669	2.75371
N	2.35848	0.429074	1.02718
C	2.98725	0.195164	-0.248939
C	2.34266	-1.02613	-0.877041
O	1.56266	-1.72694	-0.235035
H	1.93687	-0.36748	1.45098
H	2.79141	1.03563	-0.903066
C	4.5077	-0.0196946	-0.0836807
H	4.70916	-0.888312	0.578863
H	5.00544	-0.187061	-1.0608
H	4.95711	0.882973	0.384892
N	2.64969	-1.30554	-2.1591
C	2.08056	-2.44404	-2.8418
H	3.27976	-0.724376	-2.66341
H	2.45533	-2.50332	-3.88739
H	0.969359	-2.36904	-2.87152
H	2.34883	-3.39043	-2.31879
