44
  This energy is 0.1334 and Call times are: 65580
C	-3.11541	-0.760195	-1.35241
C	-2.2542	-0.308954	-0.236236
O	-2.73505	0.182168	0.775689
H	-4.17907	-0.557053	-1.10093
H	-2.98721	-1.85055	-1.51806
H	-2.85503	-0.2121	-2.2824
N	-0.938696	-0.46656	-0.400514
C	0.0276604	-0.0364115	0.579123
C	1.31721	0.301303	-0.145153
O	1.4585	0.0346882	-1.33707
H	-0.560047	-0.830264	-1.24681
H	-0.32372	0.871843	1.05266
C	0.271554	-1.13774	1.63403
H	0.642091	-2.06639	1.14992
H	1.00349	-0.813367	2.40186
H	-0.686783	-1.3744	2.14582
N	2.29095	0.908037	0.561755
C	3.55029	1.27223	-0.0445554
H	2.15646	1.11937	1.52421
H	4.21818	1.76032	0.699031
H	3.38924	1.9807	-0.88919
H	4.06937	0.371057	-0.444047
C	5.65248	-2.69704	-1.26087
C	4.65426	-1.6139	-1.40755
O	4.20787	-1.30882	-2.50485
H	5.8938	-3.11234	-2.26344
H	5.24449	-3.50979	-0.623902
H	6.583	-2.3004	-0.802727
N	4.27811	-0.997463	-0.284649
C	3.34747	0.103589	-0.272413
C	3.66863	0.981079	0.922761
O	4.47967	0.616527	1.77189
H	4.6809	-1.22952	0.596125
H	3.4928	0.70405	-1.16177
C	1.89146	-0.405553	-0.194677
H	1.73907	-1.01287	0.722921
H	1.16466	0.432458	-0.198553
H	1.68115	-1.05173	-1.07477
N	3.04118	2.17035	1.01189
C	3.28751	3.07445	2.11102
H	2.39125	2.44963	0.312843
H	2.67733	3.99836	2.0046
H	4.36215	3.36632	2.14625
H	3.02858	2.59289	3.08169
