44
  This energy is -1.4732 and Call times are: 70291
C	-3.45462	-0.41713	-0.0654149
C	-2.08799	-0.795571	-0.489954
O	-1.88056	-1.83244	-1.105
H	-4.16914	-1.20893	-0.379087
H	-3.75067	0.542315	-0.539298
H	-3.49687	-0.312082	1.03924
N	-1.10909	0.051279	-0.162863
C	0.276841	-0.201315	-0.469367
C	1.12697	0.49211	0.578484
O	0.620496	1.26438	1.39015
H	-1.2881	0.871048	0.373607
H	0.472004	-1.26363	-0.391722
C	0.632081	0.312767	-1.88173
H	0.441998	1.40455	-1.95868
H	1.69319	0.1117	-2.13498
H	-0.00749261	-0.202308	-2.63139
N	2.44754	0.223786	0.589939
C	3.33424	0.832589	1.55394
H	2.83824	-0.407027	-0.0722529
H	4.37985	0.485621	1.40052
H	3.02638	0.569398	2.59183
H	3.31544	1.94246	1.45922
C	9.08685	-2.81619	1.84264
C	8.07861	-1.87673	1.30224
O	6.88324	-2.13071	1.35705
H	8.57207	-3.71458	2.24731
H	9.66131	-2.33232	2.66032
H	9.78416	-3.13321	1.0387
N	8.54763	-0.752014	0.756879
C	7.6922	0.238063	0.151451
C	8.48433	0.950934	-0.928321
O	9.69371	0.76492	-1.04876
H	9.52547	-0.578223	0.682853
H	6.85983	-0.257108	-0.332893
C	7.18383	1.24643	1.20501
H	8.03708	1.76232	1.69477
H	6.51294	2.00583	0.753639
H	6.61398	0.701844	1.98926
N	7.81387	1.78308	-1.74931
C	8.48304	2.50053	-2.80933
H	6.83469	1.91751	-1.63879
H	7.76164	3.13219	-3.37307
H	8.96022	1.79096	-3.52354
H	9.27891	3.16112	-2.39538
