44
  This energy is 0.1268 and Call times are: 66492
C	-2.88062	-0.300501	1.92987
C	-1.75537	0.490214	1.3824
O	-1.72922	1.70891	1.48485
H	-3.62453	0.387351	2.38741
H	-2.51276	-1.00137	2.70846
H	-3.37452	-0.875764	1.11855
N	-0.785514	-0.198616	0.776375
C	0.35212	0.434515	0.157106
C	0.829827	-0.454623	-0.975495
O	0.370051	-1.58502	-1.12559
H	-0.840954	-1.18672	0.664837
H	0.0430063	1.37575	-0.280109
C	1.48434	0.659847	1.18305
H	1.80906	-0.3066	1.62415
H	2.3607	1.15932	0.721501
H	1.11002	1.30635	2.00662
N	1.76452	0.0426785	-1.8092
C	2.27527	-0.728591	-2.91846
H	2.12146	0.961043	-1.67402
H	3.03502	-0.146645	-3.48533
H	1.45233	-1.00449	-3.61698
H	2.75132	-1.66884	-2.5573
C	4.05124	-0.84572	3.37002
C	3.58147	-1.09743	1.98903
O	3.06619	-2.16299	1.68003
H	3.8688	-1.74988	3.99055
H	3.49964	0.0106348	3.81177
H	5.13925	-0.623696	3.36962
N	3.75445	-0.104795	1.11316
C	3.38742	-0.216817	-0.276551
C	4.30003	0.689318	-1.0813
O	5.05738	1.47902	-0.520494
H	4.21262	0.741418	1.36978
H	3.56304	-1.23143	-0.611736
C	1.90909	0.175855	-0.490109
H	1.73075	1.22023	-0.156154
H	1.61045	0.080441	-1.55417
H	1.26019	-0.495008	0.114217
N	4.25441	0.589297	-2.4244
C	5.0903	1.40713	-3.27211
H	3.63805	-0.0585091	-2.85975
H	4.90699	1.17711	-4.34483
H	6.1677	1.22576	-3.05394
H	4.88141	2.48852	-3.10452
