44
  This energy is 0.1246 and Call times are: 64625
C	-2.02023	1.84649	2.14985
C	-1.83538	0.890248	1.03514
O	-2.77586	0.246296	0.591029
H	-3.08452	1.83512	2.47084
H	-1.75494	2.87331	1.82119
H	-1.38192	1.55788	3.01145
N	-0.596055	0.773704	0.552577
C	-0.25217	-0.146924	-0.502292
C	1.20067	-0.546691	-0.32621
O	1.91592	0.0243295	0.494803
H	0.166783	1.27436	0.951681
H	-0.848442	-1.04516	-0.400979
C	-0.472627	0.495884	-1.88917
H	0.146849	1.4116	-1.9976
H	-0.224503	-0.207861	-2.70996
H	-1.54054	0.787702	-1.99285
N	1.6704	-1.55027	-1.09316
C	3.03826	-2.00279	-0.99141
H	1.07528	-2.00287	-1.74894
H	3.23105	-2.83534	-1.70339
H	3.25638	-2.36543	0.0392184
H	3.74496	-1.17306	-1.22221
C	9.0477	1.25081	0.0262025
C	7.72527	1.04508	0.65867
O	7.54283	1.29902	1.84131
H	9.76441	1.62781	0.787816
H	8.9684	1.9963	-0.792767
H	9.42957	0.291723	-0.382939
N	6.75806	0.56976	-0.129344
C	5.4311	0.27752	0.352662
C	4.85164	-0.834072	-0.501831
O	5.42856	-1.21186	-1.51974
H	6.93269	0.329226	-1.07987
H	5.49367	-0.0949933	1.36752
C	4.53286	1.53234	0.290768
H	4.45984	1.90873	-0.751846
H	3.51234	1.32371	0.672247
H	4.98021	2.33513	0.916671
N	3.69302	-1.39258	-0.0997107
C	3.06947	-2.46033	-0.846199
H	3.24323	-1.07616	0.728932
H	2.12594	-2.78495	-0.354654
H	3.7493	-3.34029	-0.915401
H	2.82902	-2.12756	-1.88186
