44
  This energy is -0.4939 and Call times are: 71432
C	0.481934	2.25885	2.60346
C	-0.333985	1.68636	1.50908
O	-1.51479	1.97879	1.38029
H	-0.153938	2.92563	3.22552
H	1.32209	2.85167	2.1846
H	0.886041	1.4471	3.24443
N	0.288736	0.841269	0.684206
C	-0.383669	0.171496	-0.401075
C	0.322565	-1.14733	-0.65305
O	1.38704	-1.40823	-0.0957991
H	1.2396	0.581422	0.826353
H	-1.39953	-0.0581004	-0.104534
C	-0.37552	1.04242	-1.67648
H	0.666588	1.26945	-1.98714
H	-0.902434	0.543485	-2.5155
H	-0.890353	2.00536	-1.46663
N	-0.262554	-2.01839	-1.49858
C	0.333259	-3.30031	-1.79499
H	-1.12594	-1.79106	-1.93672
H	-0.298448	-3.87159	-2.5104
H	0.445703	-3.90535	-0.866249
H	1.34345	-3.16934	-2.24611
C	5.35819	2.52061	-2.39566
C	5.87236	1.95485	-1.1281
O	6.81753	2.4665	-0.543915
H	5.96886	3.40588	-2.67714
H	4.30128	2.83758	-2.27237
H	5.42514	1.76524	-3.20684
N	5.25134	0.865719	-0.669279
C	5.66462	0.177298	0.528146
C	5.2879	-1.28545	0.386684
O	4.58542	-1.66738	-0.547316
H	4.50973	0.436963	-1.17725
H	6.743	0.225818	0.613944
C	4.99386	0.790896	1.77667
H	3.88764	0.731838	1.6939
H	5.3148	0.278331	2.70661
H	5.27699	1.86324	1.85574
N	5.75698	-2.14436	1.31311
C	5.45509	-3.5557	1.25701
H	6.32733	-1.81707	2.0592
H	5.93176	-4.09386	2.10578
H	5.82902	-3.99986	0.306123
H	4.35509	-3.72468	1.30787
