44
  This energy is 0.1089 and Call times are: 71087
C	0.923973	-3.35542	-0.0120561
C	1.03885	-1.97393	0.507016
O	1.66944	-1.73128	1.52677
H	1.4634	-4.04952	0.668475
H	1.37448	-3.42249	-1.02462
H	-0.143289	-3.65803	-0.0617572
N	0.418678	-1.02269	-0.195059
C	0.404411	0.361463	0.208015
C	-0.869687	0.99441	-0.31887
O	-1.59722	0.387263	-1.10232
H	-0.124846	-1.2414	-1.00043
H	0.369842	0.418446	1.28884
C	1.64365	1.10677	-0.334237
H	1.67392	1.05762	-1.44361
H	1.65133	2.17031	-0.0190291
H	2.56424	0.621737	0.0576891
N	-1.17465	2.23537	0.108955
C	-2.36942	2.91536	-0.33412
H	-0.575647	2.70895	0.746132
H	-2.44263	3.92394	0.129173
H	-3.27831	2.33463	-0.0549185
H	-2.36443	3.03748	-1.44146
C	5.53673	-0.916837	1.19712
C	4.28252	-0.136421	1.29236
O	3.99876	0.484279	2.30755
H	6.09258	-0.837255	2.15657
H	6.17345	-0.519574	0.378878
H	5.30836	-1.98583	1.00171
N	3.49003	-0.153294	0.218085
C	2.21728	0.522622	0.175931
C	1.31584	-0.226026	-0.787663
O	1.76148	-1.12626	-1.49666
H	3.71504	-0.696405	-0.585817
H	1.75471	0.474543	1.15386
C	2.38702	1.99111	-0.271269
H	2.85188	2.04073	-1.27898
H	1.41561	2.52623	-0.29437
H	3.05652	2.51741	0.443647
N	0.0157221	0.126054	-0.829387
C	-0.918241	-0.534131	-1.71145
H	-0.327053	0.854188	-0.24509
H	-1.93742	-0.103026	-1.59894
H	-0.971293	-1.62334	-1.48323
H	-0.603955	-0.418969	-2.77405
