44
  This energy is -2.5643 and Call times are: 68973
C	0.229454	-3.4479	-0.414729
C	-0.402686	-2.14019	-0.700079
O	-1.2193	-2.0153	-1.60227
H	-0.147996	-4.20377	-1.13728
H	-0.0222124	-3.77805	0.615032
H	1.33231	-3.37066	-0.518762
N	-0.03026	-1.11922	0.075351
C	-0.5257	0.222175	-0.108406
C	0.535717	1.18955	0.380609
O	1.52702	0.784239	0.984556
H	0.666004	-1.22754	0.779161
H	-0.669337	0.408261	-1.16546
C	-1.84699	0.432786	0.663006
H	-1.69772	0.252275	1.7489
H	-2.24589	1.4577	0.518261
H	-2.60653	-0.290774	0.294352
N	0.354848	2.49958	0.12149
C	1.31464	3.49309	0.543279
H	-0.451629	2.80786	-0.372098
H	0.987627	4.51099	0.236434
H	2.31205	3.29353	0.0887188
H	1.43154	3.48124	1.65113
C	6.48936	2.13756	2.33919
C	6.48074	0.885419	1.54975
O	7.46382	0.15885	1.50452
H	7.48647	2.26567	2.81377
H	5.71578	2.09393	3.13443
H	6.29136	3.00784	1.67852
N	5.35069	0.602946	0.897372
C	5.20503	-0.557246	0.0539913
C	4.18672	-0.23415	-1.02314
O	3.52463	0.800701	-0.973813
H	4.5729	1.22482	0.910881
H	6.14631	-0.758762	-0.442011
C	4.75273	-1.7838	0.876323
H	3.78191	-1.58135	1.37689
H	4.65035	-2.687	0.240497
H	5.50868	-1.99701	1.66336
N	4.04365	-1.11513	-2.03281
C	3.10305	-0.889339	-3.10541
H	4.59128	-1.94492	-2.05752
H	3.1337	-1.72582	-3.83793
H	3.34079	0.0567354	-3.64365
H	2.06544	-0.808973	-2.70787
