44
  This energy is -3.8646 and Call times are: 63623
C	1.09444	-3.18394	0.881718
C	0.664314	-2.18547	-0.122866
O	0.797816	-2.39471	-1.3207
H	1.53557	-4.06181	0.361505
H	0.223948	-3.52211	1.48223
H	1.85948	-2.74374	1.55555
N	0.131335	-1.05734	0.352158
C	-0.294204	0.0246807	-0.500309
C	-0.164507	1.31985	0.27897
O	0.0884132	1.30829	1.48214
H	0.066864	-0.884298	1.33081
H	0.371995	0.0921815	-1.35134
C	-1.75141	-0.182053	-0.968325
H	-2.43667	-0.240811	-0.0959669
H	-2.08625	0.637554	-1.63665
H	-1.82441	-1.13932	-1.52928
N	-0.327727	2.47474	-0.396023
C	-0.217124	3.75632	0.260862
H	-0.527838	2.46386	-1.37014
H	-0.383494	4.58469	-0.462568
H	0.794673	3.88135	0.710203
H	-0.970615	3.84625	1.07653
C	5.21064	-3.46009	0.369965
C	5.72756	-2.10739	0.676788
O	6.52408	-1.9256	1.58725
H	5.64554	-4.19065	1.0862
H	5.49685	-3.75424	-0.661685
H	4.10448	-3.47785	0.465752
N	5.27557	-1.11155	-0.0889835
C	5.65417	0.26445	0.115537
C	4.51815	1.1448	-0.370269
O	3.56918	0.664945	-0.987445
H	4.59613	-1.26923	-0.799865
H	5.77384	0.448187	1.17598
C	6.95842	0.596246	-0.642152
H	6.83288	0.417956	-1.73142
H	7.26795	1.64927	-0.481373
H	7.77386	-0.0651617	-0.276185
N	4.58544	2.46193	-0.0934034
C	3.54797	3.37604	-0.510819
H	5.35928	2.83091	0.410677
H	3.78528	4.41388	-0.18864
H	2.56779	3.08683	-0.0671073
H	3.44054	3.36883	-1.61967
