44
  This energy is -2.2346 and Call times are: 63198
C	0.993992	-0.507336	-3.29655
C	0.214521	-0.888074	-2.09714
O	-0.65746	-1.7441	-2.15435
H	0.635409	-1.09504	-4.16943
H	2.07151	-0.722225	-3.13682
H	0.86089	0.573821	-3.51214
N	0.515845	-0.247087	-0.965449
C	-0.184764	-0.478216	0.273214
C	-0.128982	0.796945	1.09322
O	0.58032	1.739	0.745172
H	1.20006	0.476266	-0.943683
H	-1.22736	-0.680281	0.0615837
C	0.446789	-1.65186	1.05356
H	1.51357	-1.44047	1.28012
H	-0.0923775	-1.84871	2.00281
H	0.402202	-2.5724	0.431496
N	-0.888143	0.859183	2.2049
C	-0.903797	2.03418	3.04473
H	-1.45869	0.088256	2.46798
H	-1.58925	1.89078	3.90891
H	-1.2472	2.924	2.46891
H	0.116023	2.24992	3.43788
C	7.2206	2.30822	1.64379
C	5.93768	1.90842	1.02296
O	4.9301	2.5889	1.15762
H	7.07466	3.25154	2.21361
H	7.98882	2.47692	0.860117
H	7.57114	1.51798	2.34071
N	5.94715	0.774175	0.318843
C	4.76629	0.23404	-0.307557
C	4.91651	-1.2739	-0.379095
O	5.98367	-1.81465	-0.0953978
H	6.76515	0.209985	0.252397
H	3.90468	0.443233	0.314137
C	4.57127	0.826403	-1.72047
H	5.45034	0.602993	-2.36184
H	3.65759	0.428716	-2.20787
H	4.47158	1.93123	-1.64466
N	3.84007	-1.99239	-0.754685
C	3.88727	-3.43308	-0.846038
H	2.98408	-1.53719	-0.976348
H	2.9038	-3.83899	-1.17048
H	4.14277	-3.88111	0.141519
H	4.65962	-3.75521	-1.58147
