44
  This energy is -1.4769 and Call times are: 71331
C	-0.070901	-2.68911	2.20824
C	-0.72182	-1.55509	1.51438
O	-1.93539	-1.40498	1.5478
H	-0.848358	-3.31604	2.69651
H	0.627248	-2.31258	2.98513
H	0.488675	-3.31312	1.47984
N	0.0854745	-0.719248	0.857097
C	-0.404354	0.40513	0.0992041
C	0.577199	0.682176	-1.0239
O	1.66246	0.106011	-1.06826
H	1.06733	-0.877719	0.804948
H	-1.35094	0.143337	-0.356939
C	-0.562848	1.65015	0.999234
H	0.410167	1.92543	1.45912
H	-0.952558	2.51895	0.430171
H	-1.27921	1.42199	1.81846
N	0.212026	1.57142	-1.96831
C	1.07861	1.89455	-3.07773
H	-0.671892	2.02439	-1.91753
H	0.600148	2.64504	-3.74486
H	1.30316	0.983843	-3.67894
H	2.04404	2.31422	-2.71309
C	7.83193	1.13691	-2.73207
C	6.55499	0.942639	-2.00901
O	5.52787	1.49467	-2.37874
H	7.67041	1.83568	-3.58147
H	8.19819	0.166956	-3.1293
H	8.59526	1.56923	-2.05126
N	6.59314	0.141001	-0.942094
C	5.44096	-0.110592	-0.112789
C	5.92671	-0.416764	1.29145
O	7.12313	-0.581382	1.52209
H	7.44537	-0.268649	-0.629461
H	4.83809	0.787213	-0.0569827
C	4.60903	-1.288	-0.666719
H	5.22407	-2.21186	-0.714275
H	3.71151	-1.48269	-0.0445607
H	4.27089	-1.04538	-1.6978
N	5.00324	-0.492156	2.26998
C	5.37244	-0.773489	3.63772
H	4.04032	-0.351926	2.06454
H	4.47292	-0.793595	4.2917
H	6.06955	0.00483313	4.02442
H	5.88233	-1.76124	3.71198
