44
  This energy is -6.1566 and Call times are: 65157
C	1.18043	-0.310797	3.25924
C	1.3974	-0.217507	1.79796
O	2.51681	-0.0511123	1.33358
H	2.15322	-0.189418	3.78348
H	0.752766	-1.30164	3.52016
H	0.488702	0.490237	3.59532
N	0.311184	-0.322312	1.02884
C	0.35755	-0.208494	-0.40763
C	-0.979805	0.327238	-0.883053
O	-1.92865	0.429956	-0.107898
H	-0.598405	-0.416539	1.42335
H	1.11243	0.516929	-0.684316
C	0.655853	-1.57618	-1.06007
H	-0.124018	-2.31794	-0.785061
H	0.707849	-1.49909	-2.16546
H	1.63509	-1.95273	-0.691758
N	-1.0835	0.691284	-2.1764
C	-2.31528	1.21698	-2.71727
H	-0.303497	0.604622	-2.78726
H	-2.19956	1.45771	-3.79703
H	-2.61455	2.1466	-2.18106
H	-3.13987	0.475635	-2.60952
C	6.82431	1.68251	-2.93299
C	5.83753	1.19987	-1.94078
O	4.6781	1.58943	-1.96001
H	6.33439	2.41306	-3.61279
H	7.20834	0.832593	-3.53541
H	7.67137	2.18289	-2.41805
N	6.28502	0.327281	-1.03484
C	5.45441	-0.198541	0.0197504
C	6.34561	-0.535163	1.20044
O	7.57013	-0.502546	1.09468
H	7.24143	0.0509486	-1.00685
H	4.76293	0.568356	0.345862
C	4.68793	-1.45249	-0.45496
H	5.39711	-2.24346	-0.779724
H	4.03418	-1.85872	0.343863
H	4.0485	-1.18455	-1.32426
N	5.74686	-0.860508	2.36305
C	6.51363	-1.19045	3.54177
H	4.75475	-0.877432	2.43022
H	5.84065	-1.42877	4.39473
H	7.16577	-0.336985	3.83774
H	7.16572	-2.07357	3.35202
