44
  This energy is -1.5417 and Call times are: 66859
C	0.919626	1.10039	3.17114
C	0.24157	0.141269	2.27032
O	-0.181201	-0.928271	2.68717
H	0.970507	0.669824	4.19481
H	0.353292	2.05458	3.21035
H	1.95189	1.29792	2.81266
N	0.123534	0.509091	0.992374
C	-0.473793	-0.335951	-0.0114514
C	0.15325	0.00432238	-1.35033
O	0.8932	0.978971	-1.46969
H	0.509068	1.36498	0.659689
H	-0.234321	-1.36993	0.20342
C	-2.00407	-0.133954	-0.0632494
H	-2.25023	0.924425	-0.294074
H	-2.47738	-0.789277	-0.82289
H	-2.44067	-0.381034	0.929064
N	-0.123772	-0.802434	-2.39361
C	0.431904	-0.560455	-3.70466
H	-0.721464	-1.58863	-2.27645
H	0.086628	-1.3328	-4.42679
H	1.54521	-0.585677	-3.67016
H	0.120858	0.439425	-4.08496
C	3.2692	-3.07841	0.930115
C	4.04959	-1.85461	1.22072
O	4.39347	-1.57925	2.36192
H	3.07054	-3.62144	1.87959
H	3.84	-3.74341	0.248425
H	2.29964	-2.8112	0.459332
N	4.34885	-1.07948	0.175734
C	5.06536	0.164764	0.306211
C	4.63474	1.07941	-0.82497
O	3.93416	0.658282	-1.74342
H	4.02679	-1.2958	-0.741511
H	4.78188	0.644558	1.23468
C	6.59119	-0.0699862	0.261751
H	6.88388	-0.552616	-0.695039
H	7.15422	0.879043	0.375149
H	6.88256	-0.748141	1.09335
N	5.04012	2.36378	-0.779368
C	4.67476	3.30874	-1.8088
H	5.60317	2.68691	-0.0259564
H	5.10394	4.31179	-1.59216
H	3.56709	3.40841	-1.87528
H	5.0514	2.97308	-2.80208
