44
  This energy is -1.9238 and Call times are: 63518
C	0.704559	3.32799	0.735368
C	0.0838386	2.02442	1.06178
O	-0.374848	1.80252	2.17389
H	0.680806	3.98148	1.6344
H	0.143942	3.82421	-0.0845202
H	1.76072	3.18193	0.425085
N	0.0578536	1.11764	0.0822609
C	-0.474316	-0.210246	0.261334
C	0.246988	-1.14174	-0.694489
O	1.00065	-0.697407	-1.55837
H	0.471949	1.29861	-0.805232
H	-0.258051	-0.549171	1.26681
C	-1.99573	-0.235156	-0.00308121
H	-2.21737	0.102421	-1.03795
H	-2.41979	-1.24942	0.145078
H	-2.50222	0.459444	0.70215
N	0.0373689	-2.4656	-0.554952
C	0.684815	-3.42825	-1.41536
H	-0.572831	-2.80626	0.152637
H	0.38499	-4.464	-1.14231
H	1.79279	-3.34979	-1.32876
H	0.408427	-3.25218	-2.48014
C	5.59882	1.13416	3.29036
C	6.1741	1.09049	1.92716
O	7.04538	1.87684	1.5823
H	6.07021	1.96325	3.86154
H	5.79377	0.177359	3.81883
H	4.50378	1.3109	3.23811
N	5.68871	0.154762	1.10789
C	6.11859	0.0164078	-0.261279
C	4.97095	-0.57202	-1.06019
O	3.96336	-0.995315	-0.496916
H	4.95068	-0.451533	1.38996
H	6.32748	0.996809	-0.670914
C	7.36636	-0.88845	-0.359006
H	7.14946	-1.89766	0.0514787
H	7.71539	-0.991611	-1.40689
H	8.19074	-0.44267	0.239336
N	5.09485	-0.604401	-2.40168
C	4.05178	-1.14108	-3.24439
H	5.91598	-0.25342	-2.83945
H	4.34137	-1.07879	-4.31653
H	3.10294	-0.574226	-3.10416
H	3.85587	-2.20914	-2.99538
