44
  This energy is -4.832 and Call times are: 72347
C	0.0909117	-3.47861	-0.0608121
C	-0.587921	-2.18805	-0.315355
O	-1.61708	-2.13334	-0.974331
H	-0.471517	-4.29495	-0.563938
H	0.124815	-3.68465	1.02966
H	1.12515	-3.45311	-0.4643
N	-0.0146655	-1.1024	0.209152
C	-0.534276	0.227804	0.0113414
C	0.624796	1.20396	0.0836951
O	1.74019	0.83171	0.442935
H	0.845151	-1.15805	0.708638
H	-0.956927	0.302031	-0.982886
C	-1.59718	0.569245	1.07853
H	-1.16129	0.503511	2.0982
H	-2.01497	1.58587	0.928684
H	-2.43182	-0.162437	1.01246
N	0.387569	2.48338	-0.266756
C	1.43079	3.4818	-0.234537
H	-0.520575	2.76467	-0.558693
H	1.03842	4.47111	-0.557881
H	2.26742	3.19775	-0.913239
H	1.84231	3.58718	0.795356
C	3.67311	-1.02747	-3.0906
C	3.68324	-1.07535	-1.61115
O	2.79994	-1.65053	-0.990378
H	2.77149	-1.55637	-3.46902
H	4.5787	-1.52591	-3.49583
H	3.64425	0.026442	-3.43917
N	4.70014	-0.458808	-1.00438
C	4.82347	-0.382983	0.430047
C	5.58311	0.884624	0.773114
O	6.11785	1.55613	-0.107132
H	5.38943	0.0400544	-1.52196
H	3.83743	-0.297014	0.869313
C	5.55825	-1.62206	0.986866
H	6.57386	-1.7048	0.544452
H	5.64728	-1.58216	2.09186
H	4.98893	-2.53829	0.717186
N	5.64098	1.24737	2.06968
C	6.33691	2.44109	2.49028
H	5.19856	0.693313	2.76707
H	6.27065	2.56685	3.59347
H	5.8962	3.34335	2.00759
H	7.41313	2.38901	2.20713
