44
  This energy is -2.5118 and Call times are: 70095
C	1.73184	0.417724	-2.9898
C	1.6828	0.0915466	-1.54677
O	2.64602	-0.4014	-0.976142
H	2.72434	0.128009	-3.39831
H	1.58532	1.50788	-3.14094
H	0.941885	-0.140349	-3.53535
N	0.537925	0.362462	-0.915695
C	0.324348	0.0615382	0.478001
C	-1.15795	-0.184798	0.686934
O	-1.96729	0.0465645	-0.209262
H	-0.251161	0.725772	-1.40274
H	0.842284	-0.855769	0.728844
C	0.812079	1.22121	1.37383
H	0.273516	2.16015	1.12406
H	0.665762	0.995725	2.45006
H	1.89719	1.389	1.19856
N	-1.54868	-0.671474	1.8813
C	-2.93787	-0.942285	2.16936
H	-0.878588	-0.856228	2.59258
H	-3.05549	-1.33749	3.20241
H	-3.34711	-1.6952	1.45738
H	-3.54658	-0.0137473	2.07754
C	11.5375	-0.734856	-0.312835
C	10.331	0.0358871	-0.689018
O	10.4116	1.03679	-1.38767
H	12.4366	-0.243185	-0.743813
H	11.4693	-1.76987	-0.708855
H	11.6411	-0.768199	0.792254
N	9.166	-0.420744	-0.223505
C	7.91159	0.246099	-0.469115
C	6.98049	-0.0559173	0.689945
O	7.28375	-0.890433	1.54043
H	9.12084	-1.21334	0.377831
H	8.07288	1.31681	-0.482752
C	7.28811	-0.224667	-1.80137
H	7.11269	-1.32147	-1.7839
H	6.32851	0.291788	-2.00862
H	7.98989	-0.000899663	-2.6343
N	5.82078	0.627368	0.754786
C	4.87477	0.411006	1.82456
H	5.59485	1.3016	0.0594899
H	3.98509	1.06717	1.70149
H	5.34058	0.633687	2.81184
H	4.53038	-0.648426	1.83643
