44
  This energy is -0.7394 and Call times are: 71170
C	0.587833	-1.99564	2.79008
C	-0.26467	-1.54311	1.66776
O	-1.28146	-2.14989	1.36059
H	0.155128	-2.92018	3.2304
H	0.635076	-1.2118	3.575
H	1.61353	-2.21673	2.42655
N	0.139965	-0.448705	1.01898
C	-0.561449	0.087556	-0.120762
C	0.445104	0.803289	-1.00175
O	1.59693	0.993326	-0.615871
H	0.991608	0.0106795	1.25464
H	-0.975968	-0.727398	-0.700981
C	-1.67753	1.0577	0.324695
H	-1.25149	1.89957	0.911027
H	-2.23406	1.46671	-0.543346
H	-2.39803	0.514663	0.97457
N	0.0326057	1.21184	-2.21787
C	0.921901	1.8963	-3.12718
H	-0.902098	1.04532	-2.51397
H	0.396934	2.14972	-4.0745
H	1.80024	1.25669	-3.37352
H	1.29924	2.84043	-2.6718
C	5.9114	3.19745	-1.34934
C	6.50887	1.98339	-0.749138
O	7.71993	1.81111	-0.742025
H	6.71978	3.838	-1.76416
H	5.3572	3.7726	-0.578093
H	5.21816	2.91704	-2.17023
N	5.65654	1.09925	-0.225485
C	6.08488	-0.148889	0.355224
C	4.9623	-1.15628	0.1923
O	3.85445	-0.80526	-0.209141
H	4.67107	1.23424	-0.275392
H	6.93814	-0.524879	-0.195421
C	6.43954	0.0299587	1.8477
H	5.56144	0.405665	2.41499
H	6.78408	-0.921211	2.30277
H	7.25742	0.7771	1.94358
N	5.22767	-2.44248	0.494428
C	4.22303	-3.47212	0.365053
H	6.13134	-2.70785	0.813853
H	4.6345	-4.46239	0.660491
H	3.86486	-3.54136	-0.687659
H	3.34561	-3.24895	1.01426
