44
  This energy is 0.1013 and Call times are: 71303
C	-3.44261	0.131668	0.493734
C	-2.15291	-0.594846	0.493754
O	-2.05309	-1.70732	0.992591
H	-4.21112	-0.484235	1.00942
H	-3.77464	0.321972	-0.548516
H	-3.33738	1.0982	1.03024
N	-1.11928	0.0308994	-0.0740744
C	0.208053	-0.530573	-0.112609
C	1.20464	0.612897	-0.141733
O	0.827702	1.77306	-0.295554
H	-1.20652	0.95327	-0.439437
H	0.385741	-1.09022	0.797254
C	0.387855	-1.43719	-1.34993
H	0.216011	-0.860974	-2.28399
H	1.40149	-1.88658	-1.38354
H	-0.356679	-2.26215	-1.31174
N	2.50841	0.310168	0.0149628
C	3.52821	1.33297	0.0065742
H	2.79361	-0.634035	0.142298
H	4.53598	0.884686	0.150321
H	3.35248	2.06956	0.823787
H	3.52423	1.88405	-0.961641
C	6.13438	-2.79035	-1.8584
C	5.8251	-2.12452	-0.573034
O	5.68299	-2.77019	0.456202
H	6.18373	-3.8896	-1.70008
H	7.11374	-2.43869	-2.24563
H	5.34158	-2.56992	-2.60403
N	5.71006	-0.794835	-0.606065
C	5.36989	-0.0113706	0.555411
C	4.65099	1.24007	0.0878161
O	4.59351	1.52405	-1.10707
H	5.78802	-0.28701	-1.45923
H	4.67714	-0.569761	1.17259
C	6.63465	0.359549	1.36043
H	7.34104	0.941485	0.730821
H	6.3846	0.951211	2.26482
H	7.14884	-0.571185	1.68551
N	4.07504	2.01765	1.02572
C	3.36454	3.22511	0.674419
H	4.12875	1.76917	1.9872
H	2.96327	3.72404	1.58397
H	2.51154	2.9955	-0.00452655
H	4.03961	3.94022	0.150943
