44
  This energy is 0.1104 and Call times are: 66286
C	0.0667395	-3.43992	0.52458
C	0.64515	-2.08635	0.680884
O	1.5768	-1.88064	1.44647
H	0.597459	-4.14628	1.19932
H	0.183789	-3.78744	-0.523404
H	-1.01099	-3.42875	0.791905
N	0.0937229	-1.11698	-0.0530287
C	0.519878	0.258236	0.022703
C	-0.665025	1.1403	-0.323007
O	-1.70578	0.653761	-0.760983
H	-0.690754	-1.29205	-0.64109
H	0.806552	0.487802	1.0414
C	1.69438	0.525869	-0.943814
H	1.39748	0.300556	-1.99029
H	2.04072	1.57805	-0.884728
H	2.54718	-0.135949	-0.6772
N	-0.535885	2.46695	-0.124632
C	-1.61227	3.3837	-0.419834
H	0.312594	2.84145	0.234402
H	-1.31224	4.42973	-0.189543
H	-2.51518	3.13698	0.184444
H	-1.89182	3.32794	-1.49681
C	1.63317	-1.90996	1.69202
C	2.74761	-0.935956	1.66979
O	3.05496	-0.302789	2.67031
H	1.17565	-1.92152	2.70513
H	2.00948	-2.92752	1.456
H	0.858091	-1.62159	0.950959
N	3.38622	-0.79129	0.506334
C	4.46268	0.149104	0.318065
C	4.47194	0.571957	-1.13888
O	3.76039	0.0027738	-1.96437
H	3.09806	-1.28371	-0.30996
H	4.27044	1.03531	0.909932
C	5.81858	-0.479072	0.708188
H	6.02116	-1.38226	0.093975
H	6.65382	0.239717	0.58078
H	5.78622	-0.788193	1.77577
N	5.27815	1.59368	-1.4883
C	5.34917	2.06877	-2.85044
H	5.84345	2.0444	-0.805389
H	6.06733	2.91393	-2.93523
H	4.35045	2.42152	-3.19598
H	5.68316	1.2547	-3.53374
