44
  This energy is 0.1002 and Call times are: 72178
C	-1.4707	-0.450637	3.12196
C	-1.41712	-0.682413	1.66095
O	-2.12709	-1.52339	1.127
H	-2.20576	-1.14898	3.57791
H	-1.7875	0.592439	3.33261
H	-0.473365	-0.632489	3.57511
N	-0.556668	0.0706177	0.971789
C	-0.361114	-0.0693595	-0.449733
C	1.06052	0.348598	-0.775017
O	1.77185	0.877974	0.0767419
H	0.0438857	0.722392	1.42609
H	-0.461245	-1.11237	-0.723104
C	-1.37254	0.795443	-1.23355
H	-1.26309	1.86685	-0.961268
H	-1.24122	0.68561	-2.32955
H	-2.40593	0.477498	-0.97401
N	1.51231	0.110861	-2.02217
C	2.85336	0.469157	-2.42144
H	0.923233	-0.322183	-2.69636
H	3.03465	0.192477	-3.48342
H	3.6051	-0.0564699	-1.78909
H	3.01632	1.56578	-2.31188
C	0.969696	1.79965	2.4598
C	2.15825	1.07281	1.95958
O	3.22488	1.1168	2.55688
H	1.23919	2.34995	3.38737
H	0.152784	1.08412	2.69092
H	0.618427	2.5282	1.69895
N	1.99744	0.377957	0.830993
C	3.07293	-0.344926	0.199076
C	2.79695	-0.395531	-1.29184
O	1.71838	-0.0183062	-1.74583
H	1.13425	0.385028	0.334294
H	3.99886	0.199258	0.337437
C	3.19224	-1.7724	0.776422
H	2.24613	-2.33461	0.625324
H	4.02577	-2.33455	0.307659
H	3.38616	-1.71113	1.86957
N	3.77608	-0.858638	-2.09362
C	3.60609	-0.938193	-3.52573
H	4.64346	-1.15545	-1.70809
H	4.52231	-1.34395	-4.00857
H	3.40162	0.069971	-3.95361
H	2.74996	-1.60279	-3.78361
