44
  This energy is 0.1168 and Call times are: 67334
C	2.26772	2.20036	-1.45896
C	1.92914	1.12117	-0.504047
O	2.80292	0.501532	0.0867013
H	3.3731	2.29767	-1.52641
H	1.84248	3.16557	-1.11215
H	1.86601	1.96024	-2.46597
N	0.629807	0.867634	-0.331349
C	0.146852	-0.181071	0.532092
C	-1.1874	-0.660989	-0.0073508
O	-1.75216	-0.0580957	-0.917998
H	-0.0682928	1.35285	-0.850085
H	0.831039	-1.01951	0.492915
C	-0.00631546	0.3256	1.98298
H	-0.716217	1.179	2.02523
H	-0.364383	-0.476539	2.66039
H	0.980338	0.679068	2.35436
N	-1.72095	-1.77041	0.540858
C	-2.98436	-2.30454	0.0884218
H	-1.24706	-2.24683	1.27402
H	-3.25267	-3.21908	0.661887
H	-2.93385	-2.57075	-0.992252
H	-3.79815	-1.55548	0.221776
C	1.6051	0.449931	0.207332
C	2.95393	0.89072	-0.214004
O	3.10127	1.83095	-0.982559
H	0.839353	1.08272	-0.291729
H	1.49507	0.552948	1.30734
H	1.44064	-0.609236	-0.082825
N	3.98524	0.207122	0.28746
C	5.3546	0.490592	-0.063366
C	6.15061	-0.794868	0.0612596
O	5.65086	-1.79871	0.565504
H	3.84779	-0.581711	0.879665
H	5.4011	0.79956	-1.10019
C	5.94429	1.58379	0.854475
H	5.90646	1.2629	1.91732
H	6.99402	1.82087	0.585436
H	5.34151	2.5126	0.75301
N	7.41437	-0.795595	-0.406622
C	8.24588	-1.97448	-0.335951
H	7.79985	0.0251999	-0.815005
H	9.24936	-1.77466	-0.772222
H	7.78114	-2.81717	-0.897354
H	8.38111	-2.29726	0.721719
