44
  This energy is 0.1147 and Call times are: 63793
C	3.12374	1.12837	1.04004
C	1.71265	0.76941	1.30671
O	1.29088	0.6668	2.45039
H	3.66034	1.25109	2.0059
H	3.17569	2.08342	0.476193
H	3.61853	0.325702	0.453525
N	0.94	0.565089	0.237303
C	-0.442334	0.167904	0.33708
C	-0.79536	-0.631769	-0.90286
O	-0.0143019	-0.703187	-1.84973
H	1.30796	0.612251	-0.686951
H	-0.56483	-0.488236	1.18979
C	-1.3628	1.40132	0.466186
H	-1.24527	2.06953	-0.41343
H	-2.42871	1.10808	0.557718
H	-1.0813	1.97573	1.37567
N	-1.9859	-1.26286	-0.921927
C	-2.40519	-2.05169	-2.05688
H	-2.60264	-1.19661	-0.144547
H	-3.41242	-2.48956	-1.88091
H	-1.68865	-2.88434	-2.24273
H	-2.45119	-1.42416	-2.97625
C	2.1709	-0.0580438	0.59214
C	3.33558	0.104434	-0.306899
O	3.19621	0.150553	-1.52134
H	1.24487	-0.139561	-0.017521
H	2.08173	0.820271	1.26546
H	2.28288	-0.980156	1.20061
N	4.53099	0.193925	0.280788
C	5.76016	0.311544	-0.463425
C	6.87406	-0.303252	0.362903
O	6.68036	-0.640648	1.52924
H	4.63248	0.113608	1.26826
H	5.68098	-0.264107	-1.3772
C	6.07389	1.79019	-0.780325
H	6.16564	2.37906	0.157151
H	7.01089	1.89297	-1.36512
H	5.24198	2.22179	-1.37864
N	8.07252	-0.471543	-0.229883
C	9.19007	-1.0534	0.476312
H	8.20878	-0.196101	-1.17574
H	10.0857	-1.1072	-0.181056
H	8.94431	-2.08468	0.818869
H	9.44878	-0.444382	1.37259
