44
  This energy is -1.7149 and Call times are: 70918
C	-1.17213	2.10646	-2.5103
C	-0.134316	1.68293	-1.5435
O	0.996987	2.14637	-1.58572
H	-0.735606	2.84441	-3.21795
H	-2.0223	2.5803	-1.97606
H	-1.53938	1.23059	-3.08569
N	-0.503062	0.775022	-0.636796
C	0.407242	0.234238	0.341703
C	-0.0548764	-1.16715	0.693999
O	-1.13761	-1.59208	0.295464
H	-1.41593	0.376868	-0.640808
H	1.39344	0.147907	-0.0971434
C	0.45209	1.12296	1.604
H	-0.557427	1.20326	2.06058
H	1.16	0.724571	2.35943
H	0.785034	2.14549	1.32129
N	0.765561	-1.92505	1.44799
C	0.41242	-3.27292	1.82839
H	1.63948	-1.56516	1.75752
H	1.21603	-3.73042	2.44655
H	0.259592	-3.90841	0.926127
H	-0.531851	-3.27989	2.41952
C	6.13671	-0.291363	3.37771
C	6.08076	-0.832938	2.00123
O	6.65762	-1.87024	1.70519
H	6.76737	-0.955142	4.00821
H	5.11623	-0.245766	3.81279
H	6.58119	0.726214	3.3708
N	5.37387	-0.128323	1.11454
C	5.26285	-0.505587	-0.272507
C	5.05186	0.754831	-1.09007
O	4.83834	1.83369	-0.540351
H	4.94386	0.735603	1.36067
H	6.19575	-0.948763	-0.597937
C	4.09237	-1.49066	-0.484328
H	3.13357	-1.0326	-0.160422
H	4.00512	-1.79948	-1.54618
H	4.26393	-2.40185	0.129377
N	5.11568	0.647759	-2.43188
C	4.93303	1.79423	-3.2912
H	5.2935	-0.233007	-2.85815
H	5.02227	1.50222	-4.36077
H	5.69996	2.57302	-3.07537
H	3.92739	2.2471	-3.1339
