44
  This energy is -2.8725 and Call times are: 72673
C	-1.04612	-2.38581	2.30787
C	-1.15348	-1.70475	0.997988
O	-1.86128	-2.15396	0.107124
H	-1.66905	-3.3065	2.29528
H	-1.40842	-1.71782	3.11735
H	0.00912965	-2.66859	2.5068
N	-0.438518	-0.587042	0.849896
C	-0.407057	0.16243	-0.381308
C	0.931407	0.871151	-0.469534
O	1.70118	0.884844	0.4891
H	0.164759	-0.256208	1.56995
H	-0.46515	-0.522505	-1.21804
C	-1.56484	1.18313	-0.435575
H	-1.49967	1.89258	0.416758
H	-1.55971	1.75694	-1.38491
H	-2.53397	0.6431	-0.361422
N	1.24463	1.47314	-1.6338
C	2.49857	2.16732	-1.81245
H	0.610538	1.44774	-2.39954
H	2.56917	2.59437	-2.83708
H	3.3568	1.47294	-1.66227
H	2.59523	2.99951	-1.0781
C	4.88067	2.29168	2.61663
C	5.36242	1.85654	1.28632
O	5.95798	2.62675	0.545709
H	5.136	3.36311	2.7673
H	5.36567	1.691	3.41457
H	3.77865	2.17218	2.68243
N	5.10848	0.59021	0.94822
C	5.47686	0.0343404	-0.330005
C	4.49261	-1.06988	-0.666939
O	3.67842	-1.46357	0.166013
H	4.58675	-0.0128605	1.54485
H	5.37953	0.796958	-1.09261
C	6.919	-0.517335	-0.296728
H	7.01671	-1.30716	0.478306
H	7.21938	-0.935643	-1.27923
H	7.62105	0.305961	-0.0405146
N	4.53984	-1.59227	-1.90826
C	3.63879	-2.64296	-2.32098
H	5.20295	-1.25779	-2.56969
H	3.83466	-2.93729	-3.37561
H	2.57985	-2.30575	-2.24214
H	3.76331	-3.54319	-1.6766
