44
  This energy is -4.96 and Call times are: 70123
C	-2.48659	1.61127	-1.82576
C	-1.06531	1.30574	-1.54688
O	-0.182997	1.62818	-2.33043
H	-2.5658	2.12548	-2.8082
H	-2.8967	2.27707	-1.03756
H	-3.07964	0.67316	-1.86231
N	-0.809402	0.663545	-0.404742
C	0.519158	0.26015	-0.0164631
C	0.402032	-0.973175	0.859177
O	-0.694586	-1.36051	1.25807
H	-1.54214	0.371499	0.203267
H	1.07884	-0.0229548	-0.89921
C	1.24114	1.39574	0.74144
H	0.672782	1.67933	1.6528
H	2.27021	1.10231	1.03371
H	1.30843	2.29043	0.0846587
N	1.53765	-1.62729	1.17309
C	1.52356	-2.81386	1.99652
H	2.4151	-1.30093	0.837478
H	2.55488	-3.20484	2.14056
H	0.90865	-3.61323	1.52306
H	1.08938	-2.59201	2.99822
C	5.5659	-3.18136	1.01155
C	5.31647	-1.90102	0.31179
O	4.35236	-1.76138	-0.428079
H	4.77823	-3.91348	0.729695
H	5.53763	-3.02847	2.1109
H	6.55672	-3.58971	0.720697
N	6.19737	-0.922481	0.532837
C	6.11178	0.365163	-0.109971
C	7.51518	0.929218	-0.227758
O	8.46284	0.382388	0.33316
H	6.99965	-1.0644	1.1056
H	5.72986	0.2379	-1.11524
C	5.20834	1.32475	0.695157
H	5.60553	1.46392	1.72322
H	5.12327	2.31531	0.203158
H	4.18888	0.888192	0.775498
N	7.68225	2.03975	-0.972626
C	8.98216	2.64492	-1.14635
H	6.90396	2.46551	-1.42215
H	8.91242	3.54799	-1.79198
H	9.689	1.92738	-1.62257
H	9.40886	2.94871	-0.163099
