44
  This energy is -2.5368 and Call times are: 70800
C	-1.06637	3.11272	-1.13425
C	-0.465531	2.23727	-0.102882
O	0.0839101	2.7068	0.884064
H	-0.906706	4.17603	-0.851844
H	-2.15733	2.92109	-1.21062
H	-0.588794	2.92695	-2.11939
N	-0.556796	0.922211	-0.314238
C	0.01727	-0.0538107	0.57817
C	0.366765	-1.28782	-0.232164
O	0.00374141	-1.39683	-1.4018
H	-0.97098	0.556006	-1.14262
H	0.941139	0.335849	0.987147
C	-0.968418	-0.411815	1.71197
H	-1.91234	-0.82146	1.29334
H	-0.532719	-1.15223	2.41373
H	-1.21629	0.507264	2.2866
N	1.09244	-2.24852	0.373195
C	1.47697	-3.45556	-0.320628
H	1.3804	-2.14041	1.31896
H	2.06935	-4.12051	0.345817
H	2.09595	-3.21427	-1.21501
H	0.576974	-4.01501	-0.664377
C	7.71407	-0.852722	-2.40765
C	6.43015	-1.07572	-1.70552
O	5.6051	-1.87159	-2.13247
H	7.74844	-1.48645	-3.32037
H	8.56381	-1.12675	-1.74766
H	7.80689	0.212774	-2.70628
N	6.22977	-0.363082	-0.594491
C	5.0118	-0.439445	0.173157
C	4.80549	0.893943	0.866759
O	5.68596	1.75206	0.856495
H	6.89317	0.310797	-0.282016
H	4.17503	-0.586682	-0.498229
C	5.08308	-1.58312	1.20862
H	5.93505	-1.427	1.90419
H	4.14573	-1.66109	1.79667
H	5.24231	-2.54794	0.679382
N	3.62505	1.10242	1.48249
C	3.33666	2.34282	2.16396
H	2.92339	0.397645	1.47647
H	2.31603	2.32081	2.60563
H	3.39411	3.20197	1.45696
H	4.06988	2.52065	2.98366
