44
  This energy is 0.1143 and Call times are: 69235
C	1.02685	-2.80671	1.78344
C	0.42022	-2.16888	0.593352
O	0.199281	-2.80983	-0.424867
H	1.23225	-3.87662	1.56216
H	0.331446	-2.74536	2.6468
H	1.98229	-2.30341	2.04215
N	0.135201	-0.868747	0.697308
C	-0.418006	-0.101185	-0.390521
C	0.0294599	1.33933	-0.228508
O	0.603459	1.7093	0.793921
H	0.358588	-0.351279	1.5184
H	-0.0100036	-0.46239	-1.32631
C	-1.95976	-0.191325	-0.401238
H	-2.37938	0.18893	0.554461
H	-2.39701	0.384346	-1.24263
H	-2.26444	-1.25486	-0.512697
N	-0.217455	2.18887	-1.24504
C	0.176744	3.577	-1.18277
H	-0.679403	1.86992	-2.06599
H	-0.113746	4.11048	-2.11456
H	1.28011	3.66672	-1.05702
H	-0.311517	4.08594	-0.320377
C	1.25084	-0.704326	1.17562
C	2.22584	-0.529213	0.075676
O	1.95441	-0.861996	-1.06975
H	0.325583	-1.17271	0.775168
H	0.992464	0.28053	1.61839
H	1.6756	-1.36303	1.96223
N	3.40401	0.0045909	0.406351
C	4.46902	0.197041	-0.546157
C	5.78865	0.124177	0.198713
O	5.81737	0.0933086	1.4275
H	3.62524	0.232567	1.35025
H	4.45805	-0.614458	-1.26307
C	4.32731	1.55664	-1.26494
H	4.3491	2.3901	-0.530837
H	5.13373	1.71061	-2.01093
H	3.35132	1.59075	-1.79655
N	6.91899	0.0862915	-0.53403
C	8.22058	0.0110391	0.0875548
H	6.87529	0.108057	-1.52735
H	9.02329	-0.0108294	-0.682132
H	8.30623	-0.909368	0.709485
H	8.39207	0.891405	0.74838
