44
  This energy is 0.1033 and Call times are: 72296
C	-2.1972	2.01828	1.79208
C	-1.57667	0.706688	1.49912
O	-1.73496	-0.24934	2.24569
H	-2.7612	1.95248	2.74783
H	-2.89918	2.29964	0.97919
H	-1.41363	2.79896	1.89024
N	-0.842005	0.632956	0.386827
C	-0.141217	-0.563439	-0.00826468
C	1.07609	-0.15374	-0.815652
O	1.23312	1.01303	-1.17019
H	-0.688876	1.43078	-0.18927
H	0.215916	-1.07669	0.875851
C	-1.05584	-1.48942	-0.839686
H	-1.41401	-0.966891	-1.75221
H	-0.531964	-2.42052	-1.13824
H	-1.94375	-1.77008	-0.232073
N	1.97579	-1.10996	-1.11928
C	3.16756	-0.812616	-1.87918
H	1.83336	-2.04764	-0.820038
H	3.78016	-1.72955	-2.0247
H	3.79091	-0.0547515	-1.35159
H	2.903	-0.404712	-2.88156
C	7.00075	0.920798	2.18141
C	5.62175	0.45558	1.91106
O	4.90591	0.0399422	2.81174
H	7.22262	0.802457	3.26429
H	7.10365	1.99208	1.90846
H	7.72894	0.319196	1.59756
N	5.21382	0.51446	0.641212
C	3.91404	0.0574904	0.216588
C	4.02098	-0.397897	-1.22659
O	5.04229	-0.189578	-1.87868
H	5.82212	0.816817	-0.0870709
H	3.62813	-0.80444	0.806467
C	2.86257	1.18039	0.353556
H	3.15007	2.06089	-0.259716
H	1.8547	0.836725	0.0427276
H	2.80696	1.50349	1.41603
N	2.96389	-1.04229	-1.75888
C	2.97663	-1.51725	-3.12285
H	2.14786	-1.20513	-1.21422
H	2.01678	-2.02061	-3.37298
H	3.80514	-2.24594	-3.27731
H	3.12433	-0.671104	-3.83234
