44
  This energy is 0.1174 and Call times are: 66605
C	-2.82939	-1.5504	-1.30519
C	-1.73067	-0.561769	-1.38631
O	-1.49004	0.0331028	-2.42777
H	-3.32038	-1.6362	-2.29889
H	-3.58362	-1.22393	-0.558661
H	-2.42889	-2.54468	-1.0152
N	-1.02685	-0.363753	-0.269262
C	0.0988495	0.534673	-0.204519
C	1.04785	0.0275358	0.864955
O	0.720048	-0.89103	1.61362
H	-1.20852	-0.885493	0.559382
H	0.631405	0.508565	-1.14703
C	-0.361286	1.97328	0.117857
H	-0.898497	2.00242	1.08976
H	0.495099	2.67728	0.156763
H	-1.06089	2.32082	-0.673422
N	2.2581	0.613249	0.955752
C	3.22911	0.193542	1.9392
H	2.50667	1.35227	0.338385
H	4.16061	0.795424	1.85391
H	3.4915	-0.880104	1.7988
H	2.82407	0.318059	2.96953
C	-0.26756	-0.53369	-1.2146
C	1.20439	-0.556711	-1.36953
O	1.73208	-1.1162	-2.3208
H	-0.734003	-1.09409	-2.05379
H	-0.637833	0.512902	-1.2316
H	-0.559024	-1.01317	-0.256359
N	1.91085	0.0600111	-0.419289
C	3.35232	0.0853373	-0.410281
C	3.81448	0.193024	1.03068
O	3.01019	0.406889	1.93572
H	1.46878	0.475677	0.370427
H	3.72851	-0.852128	-0.800486
C	3.88845	1.27182	-1.24099
H	3.51128	2.23447	-0.834673
H	4.99745	1.29417	-1.25323
H	3.53141	1.17662	-2.2897
N	5.12993	0.0377434	1.27869
C	5.66102	0.118235	2.61945
H	5.76468	-0.138753	0.533694
H	6.76251	-0.0364956	2.61608
H	5.20001	-0.658411	3.27181
H	5.44826	1.11591	3.06726
