44
  This energy is -2.7453 and Call times are: 71533
C	-0.921204	-3.34602	0.261218
C	-1.0659	-1.92139	0.63624
O	-2.02123	-1.53409	1.29484
H	-1.78993	-3.91886	0.652433
H	0.0105176	-3.7638	0.697214
H	-0.890733	-3.44961	-0.843966
N	-0.104357	-1.09633	0.215404
C	-0.129118	0.323403	0.464987
C	0.618174	1.0145	-0.659956
O	1.25597	0.363687	-1.48541
H	0.645672	-1.41946	-0.354606
H	-1.15336	0.673611	0.434747
C	0.516678	0.655267	1.82809
H	1.57071	0.30559	1.85581
H	0.491272	1.7442	2.03812
H	-0.0413508	0.132733	2.6355
N	0.548905	2.35882	-0.723342
C	1.22319	3.10233	-1.76196
H	0.0244629	2.86767	-0.0487265
H	1.04542	4.19386	-1.64287
H	0.854762	2.79489	-2.76745
H	2.32162	2.91981	-1.72611
C	3.94873	-2.74579	-1.4175
C	3.99666	-1.6135	-0.465256
O	2.9993	-1.25986	0.148426
H	2.91255	-3.14627	-1.46007
H	4.63319	-3.55444	-1.0853
H	4.24433	-2.40519	-2.43223
N	5.17822	-1.00891	-0.321124
C	5.37114	0.134033	0.536208
C	6.50674	0.964658	-0.0312849
O	7.1952	0.540805	-0.957609
H	5.97125	-1.28206	-0.858115
H	4.48038	0.749491	0.516872
C	5.69283	-0.307867	1.98067
H	6.61252	-0.930559	2.00242
H	5.8299	0.563235	2.65366
H	4.85205	-0.920767	2.37281
N	6.72402	2.17947	0.510041
C	7.77855	3.04264	0.0314279
H	6.15379	2.50676	1.25623
H	7.79579	3.99664	0.603116
H	7.63087	3.28263	-1.04648
H	8.77119	2.54918	0.142384
