44
  This energy is -2.0434 and Call times are: 63367
C	-0.0255169	3.24889	-1.24771
C	-0.381867	2.24462	-0.220277
O	-0.838019	2.58217	0.863418
H	-0.224962	4.26774	-0.850163
H	-0.635938	3.09407	-2.16212
H	1.05177	3.1679	-1.50457
N	-0.175514	0.965861	-0.543642
C	-0.4333	-0.121375	0.367414
C	0.507655	-1.26042	0.0228236
O	1.19499	-1.22321	-0.995948
H	0.234698	0.709093	-1.41408
H	-0.200529	0.195277	1.37646
C	-1.90323	-0.585289	0.270895
H	-2.13959	-0.92017	-0.761592
H	-2.11787	-1.41297	0.977573
H	-2.57385	0.266136	0.519286
N	0.566314	-2.30261	0.875129
C	1.43687	-3.42933	0.632624
H	0.00552099	-2.31273	1.6964
H	1.34215	-4.18177	1.44631
H	2.50009	-3.10035	0.581523
H	1.18138	-3.92276	-0.332981
C	4.27756	-2.23402	-1.99509
C	4.62848	-0.859386	-1.57272
O	4.2752	0.112999	-2.22546
H	3.70113	-2.19059	-2.94467
H	3.65454	-2.72564	-1.21863
H	5.19942	-2.83036	-2.16126
N	5.34621	-0.747747	-0.452546
C	5.7998	0.520713	0.0610931
C	7.08314	0.285873	0.835346
O	7.4727	-0.854843	1.07766
H	5.66114	-1.55055	0.0456392
H	6.03803	1.17679	-0.766819
C	4.72882	1.16268	0.97
H	4.49173	0.494625	1.82529
H	5.06064	2.14645	1.36068
H	3.79615	1.31803	0.384901
N	7.77835	1.36835	1.23653
C	9.01381	1.24256	1.97408
H	7.44921	2.28323	1.02742
H	9.4337	2.24476	2.2118
H	9.76934	0.677648	1.38135
H	8.8467	0.696328	2.93056
