44
  This energy is 0.1033 and Call times are: 5747
C	-1.2756	-1.6791	-2.76878
C	-0.348859	-1.57794	-1.61897
O	0.311921	-2.53978	-1.25204
H	-1.25367	-2.7164	-3.16803
H	-0.966374	-0.978124	-3.57237
H	-2.31126	-1.43941	-2.44779
N	-0.281218	-0.389728	-1.01404
C	0.54261	-0.149008	0.144378
C	-0.101892	0.954405	0.962088
O	-1.05651	1.59057	0.519681
H	-0.855731	0.372357	-1.29869
H	0.560673	-1.03896	0.761055
C	1.97527	0.251184	-0.271037
H	1.95816	1.17014	-0.894949
H	2.62324	0.425775	0.612238
H	2.42444	-0.567315	-0.874908
N	0.403776	1.20215	2.1864
C	-0.148161	2.22954	3.03848
H	1.17387	0.674058	2.52867
H	0.403704	2.27898	4.00296
H	-1.22064	2.02305	3.25854
H	-0.0826393	3.22634	2.54529
C	1.82878	-0.121241	-0.220721
C	3.08068	0.446756	0.328188
O	3.0732	1.47981	0.983286
H	0.976382	0.539288	0.0494026
H	1.64887	-1.13158	0.203062
H	1.89297	-0.190752	-1.32712
N	4.20303	-0.22702	0.0660231
C	5.50312	0.224023	0.496015
C	6.53306	-0.291486	-0.491426
O	6.22074	-1.10196	-1.36166
H	4.19824	-1.04423	-0.503194
H	5.53561	1.30584	0.460716
C	5.81886	-0.281064	1.92095
H	5.79602	-1.39117	1.95529
H	6.81154	0.0711608	2.26885
H	5.04817	0.101667	2.62515
N	7.79206	0.176768	-0.383357
C	8.838	-0.252652	-1.28212
H	8.02459	0.835279	0.324716
H	9.80071	0.244943	-1.0315
H	8.57779	-0.00182192	-2.336
H	8.98516	-1.35497	-1.21586
