44
  This energy is -7.833 and Call times are: 2844
C	-1.41452	-1.11845	2.97672
C	-0.266084	-0.969469	2.05475
O	0.872515	-1.23631	2.41363
H	-1.0483	-1.46981	3.96581
H	-2.13391	-1.86256	2.57483
H	-1.92777	-0.14272	3.10948
N	-0.545123	-0.529885	0.82541
C	0.471703	-0.293927	-0.169048
C	-0.0216428	0.79742	-1.10024
O	-1.18054	1.20317	-1.03676
H	-1.47162	-0.277881	0.560914
H	1.36657	0.0758979	0.315803
C	0.778571	-1.58376	-0.961131
H	-0.136814	-1.95774	-1.46734
H	1.56994	-1.41846	-1.7207
H	1.13025	-2.37081	-0.25883
N	0.85597	1.30662	-1.98711
C	0.478067	2.35187	-2.90951
H	1.79056	0.968263	-2.02061
H	1.33764	2.63564	-3.55591
H	0.139783	3.25894	-2.35809
H	-0.357381	2.01465	-3.56484
C	4.54154	2.17841	-2.18636
C	4.58377	0.939558	-1.37727
O	3.57737	0.268862	-1.19359
H	3.50066	2.35404	-2.53505
H	5.20523	2.08051	-3.07105
H	4.86686	3.04621	-1.57468
N	5.77065	0.605147	-0.865521
C	5.96027	-0.548626	-0.0220737
C	7.12194	-0.265994	0.911853
O	7.82607	0.730063	0.757622
H	6.57217	1.18307	-0.98976
H	5.07981	-0.690715	0.592109
C	6.24	-1.81027	-0.867791
H	7.14921	-1.66895	-1.49022
H	6.37409	-2.70818	-0.230367
H	5.38063	-1.9933	-1.5492
N	7.34468	-1.13839	1.91451
C	8.42366	-0.948705	2.85578
H	6.76163	-1.93638	2.02556
H	8.4417	-1.77126	3.60433
H	8.30588	0.0169031	3.39893
H	9.40561	-0.931399	2.32983
