44
  This energy is -3.4965 and Call times are: 7677
C	-0.216228	3.27549	1.15634
C	-0.397449	2.25031	0.104051
O	-1.02875	2.49395	-0.915018
H	-0.741355	4.20788	0.855062
H	0.862994	3.49851	1.29155
H	-0.642641	2.9173	2.11705
N	0.160645	1.05938	0.333392
C	0.034053	-0.0507786	-0.577699
C	0.121826	-1.33454	0.225918
O	0.437726	-1.31349	1.41397
H	0.636639	0.863499	1.18599
H	-0.945621	-0.0249294	-1.03835
C	1.14019	-0.00946531	-1.65473
H	2.14533	-0.0466006	-1.18319
H	1.04526	-0.851475	-2.37064
H	1.06176	0.941814	-2.22505
N	-0.166157	-2.4891	-0.406606
C	-0.114737	-3.75957	0.278558
H	-0.423769	-2.48551	-1.36718
H	-0.384752	-4.58949	-0.411045
H	-0.824971	-3.77197	1.13686
H	0.90874	-3.95142	0.674575
C	4.08906	2.16179	-2.41857
C	4.58354	0.835002	-1.98696
O	4.4603	-0.14978	-2.7021
H	3.61506	2.06917	-3.41986
H	4.93208	2.88126	-2.48518
H	3.33486	2.54212	-1.69774
N	5.16208	0.779506	-0.785043
C	5.65343	-0.448272	-0.210854
C	5.57306	-0.329517	1.29945
O	5.29967	0.743874	1.83311
H	5.21832	1.58153	-0.197291
H	5.00565	-1.26461	-0.505151
C	7.10668	-0.722626	-0.655859
H	7.77354	0.109635	-0.344933
H	7.49172	-1.67242	-0.231418
H	7.14299	-0.797786	-1.76463
N	5.80294	-1.44023	2.0271
C	5.74305	-1.42436	3.47013
H	6.01866	-2.30048	1.57709
H	5.9612	-2.43354	3.88391
H	4.73102	-1.11428	3.81786
H	6.48617	-0.706337	3.88649
