44
  This energy is -2.6637 and Call times are: 8629
C	-0.388956	-0.287954	-3.44652
C	0.198785	-0.725414	-2.16031
O	0.811024	-1.78064	-2.07049
H	-0.188303	-1.05801	-4.22281
H	0.0652052	0.672952	-3.76767
H	-1.48713	-0.160815	-3.34187
N	0.0200959	0.0899424	-1.11837
C	0.496231	-0.220308	0.206623
C	-0.417172	0.460043	1.20881
O	-1.26896	1.26582	0.838816
H	-0.515652	0.925727	-1.19777
H	0.419543	-1.28758	0.372972
C	1.95415	0.25362	0.393981
H	2.0315	1.35016	0.233784
H	2.33694	0.00807006	1.40576
H	2.60315	-0.250904	-0.354755
N	-0.26504	0.142465	2.50959
C	-1.09259	0.735328	3.53421
H	0.426974	-0.514843	2.78911
H	-0.814169	0.34645	4.53844
H	-2.1673	0.503305	3.35414
H	-0.975193	1.84316	3.54208
C	5.58482	3.20254	0.616291
C	5.82976	1.80078	1.02398
O	5.6719	1.44175	2.18268
H	5.27794	3.79531	1.50528
H	4.77408	3.24471	-0.141114
H	6.51057	3.64486	0.191549
N	6.23021	0.964659	0.0632836
C	6.54899	-0.418673	0.314929
C	7.5816	-0.859277	-0.705445
O	7.87992	-0.134588	-1.65283
H	6.39364	1.28102	-0.866803
H	7.00392	-0.508113	1.29353
C	5.28528	-1.30169	0.222428
H	4.82412	-1.21844	-0.784767
H	5.51526	-2.36725	0.427913
H	4.54051	-0.956282	0.972333
N	8.16071	-2.06325	-0.529157
C	9.15808	-2.56384	-1.44613
H	7.9092	-2.63359	0.245785
H	9.51336	-3.56942	-1.1302
H	10.0355	-1.87831	-1.48471
H	8.73944	-2.64699	-2.47519
