44
  This energy is -2.9414 and Call times are: 5205
C	-1.61216	2.97759	-0.804736
C	-0.997046	2.05153	0.172606
O	-0.767143	2.40451	1.32107
H	-1.78171	3.96359	-0.320041
H	-2.58709	2.57539	-1.15186
H	-0.938477	3.11678	-1.67644
N	-0.710459	0.825313	-0.270826
C	-0.0707991	-0.1723	0.550249
C	0.71875	-1.09661	-0.357395
O	0.605769	-1.02653	-1.5797
H	-0.865889	0.565776	-1.21969
H	0.636499	0.310468	1.21304
C	-1.11444	-0.971342	1.36116
H	-1.83401	-1.4754	0.681313
H	-0.633322	-1.73344	2.00788
H	-1.68562	-0.273991	2.01216
N	1.54878	-1.98485	0.22407
C	2.34439	-2.90105	-0.55937
H	1.62973	-2.02371	1.21453
H	2.96135	-3.54974	0.100768
H	3.02741	-2.34422	-1.24106
H	1.69184	-3.55438	-1.18264
C	5.61086	-3.22432	1.29644
C	5.52856	-1.75369	1.44347
O	5.07405	-1.24343	2.4581
H	5.19466	-3.70829	2.2066
H	6.66888	-3.53811	1.17444
H	5.02356	-3.55409	0.413601
N	5.97246	-1.02859	0.41411
C	5.91762	0.411918	0.392381
C	5.80525	0.859215	-1.05291
O	5.93911	0.055023	-1.97327
H	6.30171	-1.45878	-0.421586
H	5.02199	0.743043	0.903085
C	7.17394	1.02185	1.05184
H	8.09238	0.690865	0.521782
H	7.13717	2.13053	1.05374
H	7.2402	0.674763	2.10611
N	5.54646	2.16098	-1.28625
C	5.41689	2.67703	-2.62903
H	5.43732	2.79567	-0.528399
H	5.20412	3.76867	-2.61198
H	4.58594	2.16639	-3.16759
H	6.35543	2.51151	-3.206
