44
  This energy is -2.047 and Call times are: 9768
C	1.89784	-0.892567	-2.77744
C	1.08594	-1.23687	-1.58858
O	0.708265	-2.38338	-1.39041
H	2.05378	-1.80534	-3.3926
H	2.88686	-0.497148	-2.46401
H	1.37311	-0.13063	-3.39161
N	0.79331	-0.232809	-0.758748
C	-0.0237586	-0.404093	0.416675
C	-0.723864	0.91124	0.701817
O	-0.42399	1.93115	0.0840985
H	1.0733	0.702596	-0.95494
H	-0.791211	-1.14069	0.214017
C	0.833901	-0.834459	1.62682
H	1.61469	-0.074045	1.8417
H	0.21422	-0.983057	2.5348
H	1.34301	-1.79487	1.39282
N	-1.68585	0.915813	1.64553
C	-2.41012	2.11964	1.98079
H	-1.91726	0.0796752	2.13173
H	-3.15876	1.91889	2.77858
H	-2.94658	2.51661	1.08865
H	-1.7133	2.90925	2.34425
C	4.3188	-0.0293401	3.21556
C	4.92723	0.673039	2.06333
O	4.96	1.89481	2.0122
H	3.92407	0.719943	3.93571
H	5.08	-0.654257	3.7282
H	3.48198	-0.673654	2.87252
N	5.42888	-0.098051	1.09578
C	6.01402	0.43989	-0.107046
C	5.82293	-0.573201	-1.22002
O	5.39884	-1.7017	-0.978434
H	5.35809	-1.09077	1.13247
H	5.48062	1.33782	-0.393117
C	7.51451	0.743221	0.0972974
H	8.06401	-0.179753	0.380518
H	7.97336	1.17091	-0.817615
H	7.63098	1.4805	0.921427
N	6.12587	-0.187691	-2.47525
C	5.97079	-1.08195	-3.59883
H	6.46384	0.730904	-2.65141
H	6.27134	-0.58039	-4.54505
H	4.91029	-1.40901	-3.69707
H	6.60163	-1.99081	-3.46781
