44
  This energy is -0.2954 and Call times are: 6980
C	-2.36123	1.80024	1.8156
C	-1.51222	1.60063	0.61958
O	-1.67207	2.27328	-0.389576
H	-3.1076	2.59737	1.60731
H	-1.73738	2.10919	2.68054
H	-2.89865	0.860921	2.0645
N	-0.575946	0.653008	0.707889
C	0.297662	0.313906	-0.387729
C	0.690159	-1.14463	-0.245728
O	0.406796	-1.77707	0.769869
H	-0.484934	0.0858996	1.52151
H	-0.243868	0.412906	-1.32024
C	1.55241	1.21437	-0.391898
H	2.11402	1.10523	0.56032
H	2.22641	0.972313	-1.23905
H	1.24096	2.27737	-0.488673
N	1.34901	-1.71764	-1.27218
C	1.75814	-3.10218	-1.22905
H	1.56573	-1.19077	-2.08735
H	2.28519	-3.38589	-2.16657
H	0.874102	-3.7694	-1.10832
H	2.44618	-3.28219	-0.371537
C	10.9337	1.93243	0.59065
C	9.75956	1.55757	-0.229191
O	9.39659	2.25097	-1.16933
H	11.3537	2.89037	0.214171
H	11.7146	1.14617	0.52269
H	10.6333	2.06407	1.65155
N	9.12853	0.433178	0.117118
C	7.94547	-0.0382028	-0.55869
C	7.12104	-0.837329	0.432919
O	7.57343	-1.12744	1.53876
H	9.41128	-0.0989098	0.910081
H	7.3472	0.810652	-0.865513
C	8.31713	-0.908336	-1.77934
H	8.92201	-1.78502	-1.46375
H	7.41476	-1.26599	-2.3163
H	8.92669	-0.305755	-2.48762
N	5.87978	-1.20647	0.0600637
C	5.02033	-1.96421	0.939468
H	5.52976	-0.95883	-0.837284
H	4.04175	-2.16947	0.45214
H	4.83102	-1.403	1.88313
H	5.49089	-2.93832	1.20559
