44
  This energy is -0.9949 and Call times are: 8405
C	-1.89406	-0.665957	2.84284
C	-1.61163	0.117534	1.61911
O	-2.42192	0.923101	1.18218
H	-2.90473	-0.401661	3.22307
H	-1.14313	-0.434531	3.62724
H	-1.86834	-1.75267	2.61591
N	-0.435665	-0.107609	1.02852
C	-0.0372405	0.546726	-0.192815
C	0.911914	-0.37491	-0.935276
O	1.34429	-1.39529	-0.402752
H	0.196081	-0.796137	1.37304
H	-0.906991	0.688894	-0.822064
C	0.64392	1.90076	0.103585
H	1.54229	1.75434	0.740394
H	0.942926	2.42081	-0.829509
H	-0.0659723	2.55596	0.654139
N	1.25308	-0.038199	-2.19474
C	2.14628	-0.857271	-2.98055
H	0.889718	0.789213	-2.60999
H	2.30316	-0.413002	-3.98814
H	1.7278	-1.88161	-3.11047
H	3.13718	-0.9501	-2.47992
C	6.9961	1.4524	-3.08525
C	7.42207	0.811508	-1.82075
O	8.57478	0.435492	-1.65864
H	7.85884	1.49319	-3.78515
H	6.64254	2.48662	-2.88996
H	6.17925	0.865344	-3.55557
N	6.48345	0.66894	-0.882101
C	6.73582	0.0256865	0.383239
C	5.4369	-0.590109	0.868175
O	4.37548	-0.355018	0.293871
H	5.53978	0.942892	-1.04428
H	7.44175	-0.782617	0.238542
C	7.27524	1.03701	1.41836
H	6.54677	1.86093	1.575
H	7.48661	0.551033	2.39287
H	8.22157	1.48086	1.03914
N	5.49316	-1.40539	1.9397
C	4.30902	-2.04087	2.46899
H	6.36193	-1.58675	2.38849
H	4.56151	-2.67172	3.34962
H	3.83341	-2.68949	1.69805
H	3.56207	-1.27779	2.78668
