44
  This energy is -0.8806 and Call times are: 7946
C	3.0208	-1.28914	1.15133
C	1.60472	-1.44728	0.750282
O	1.11234	-2.55549	0.589523
H	3.49043	-2.29247	1.24437
H	3.08552	-0.769854	2.13056
H	3.57232	-0.703827	0.385607
N	0.908341	-0.321804	0.574976
C	-0.467287	-0.313873	0.143531
C	-0.719237	0.978579	-0.609891
O	0.12311	1.87411	-0.623472
H	1.33418	0.573483	0.669769
H	-0.628525	-1.12884	-0.551063
C	-1.42447	-0.432922	1.34971
H	-1.26674	0.408704	2.0574
H	-2.48647	-0.441895	1.02942
H	-1.21686	-1.38191	1.89071
N	-1.89003	1.10203	-1.26565
C	-2.21516	2.29373	-2.0142
H	-2.55734	0.364865	-1.24636
H	-3.22052	2.20268	-2.48129
H	-1.46767	2.46622	-2.82215
H	-2.21698	3.18743	-1.34904
C	10.7762	-1.77077	-2.00527
C	10.2784	-0.510847	-1.40866
O	10.9306	0.521952	-1.47503
H	11.7748	-1.59237	-2.46008
H	10.0792	-2.12185	-2.79497
H	10.8722	-2.5529	-1.22288
N	9.0916	-0.570676	-0.800145
C	8.49656	0.56223	-0.136068
C	7.61075	0.043961	0.981213
O	7.3688	-1.15681	1.08753
H	8.59145	-1.42803	-0.718678
H	9.27642	1.1586	0.320864
C	7.67444	1.41395	-1.12801
H	6.86762	0.805357	-1.5892
H	7.2225	2.29703	-0.631594
H	8.34099	1.77588	-1.94107
N	7.11037	0.943617	1.85084
C	6.26218	0.542606	2.94899
H	7.32071	1.91048	1.75084
H	5.95338	1.42595	3.5503
H	6.79751	-0.168034	3.61958
H	5.34408	0.0365089	2.57203
