44
  This energy is 0.1401 and Call times are: 1100
C	3.44403	-0.197559	0.460806
C	2.23034	-0.34428	-0.373808
O	2.3104	-0.528878	-1.58042
H	4.3453	-0.265587	-0.186455
H	3.4857	-1.0057	1.22102
H	3.44113	0.789113	0.970277
N	1.05933	-0.26157	0.26201
C	-0.207633	-0.341844	-0.421314
C	-1.22481	0.455575	0.373056
O	-0.949929	0.892887	1.48881
H	1.00979	-0.0701634	1.23811
H	-0.119238	0.126071	-1.39387
C	-0.664239	-1.81009	-0.566216
H	-0.765254	-2.28747	0.431752
H	-1.63198	-1.8861	-1.10308
H	0.0987134	-2.3764	-1.14375
N	-2.42923	0.671321	-0.191612
C	-3.45834	1.42399	0.487068
H	-2.63158	0.312952	-1.09698
H	-4.37442	1.4917	-0.14018
H	-3.1076	2.45814	0.707931
H	-3.72912	0.937789	1.45217
C	2.65309	3.14973	-0.313694
C	2.86809	1.76191	-0.781529
O	2.17964	1.2797	-1.6703
H	1.80596	3.59966	-0.875637
H	3.56479	3.75848	-0.489703
H	2.40885	3.15489	0.769538
N	3.84434	1.07761	-0.180641
C	4.14414	-0.296513	-0.4976
C	4.72889	-0.950657	0.740029
O	5.02637	-0.279405	1.72625
H	4.36911	1.47	0.569359
H	3.22465	-0.817412	-0.73388
C	5.13628	-0.386665	-1.67776
H	6.08374	0.138567	-1.43183
H	5.36437	-1.43999	-1.94044
H	4.69091	0.105147	-2.57001
N	4.90014	-2.28716	0.719174
C	5.44483	-2.99722	1.85289
H	4.64966	-2.8137	-0.0864894
H	5.50699	-4.08744	1.64123
H	4.80433	-2.85088	2.75268
H	6.46789	-2.62768	2.09357
