44
  This energy is -1.761 and Call times are: 873
C	-0.112219	2.99969	1.76124
C	0.146065	1.54434	1.68117
O	0.710245	0.950657	2.58982
H	0.294278	3.39274	2.7184
H	-1.20428	3.19703	1.72659
H	0.384818	3.52354	0.917664
N	-0.266692	0.928578	0.570839
C	-0.0482211	-0.475928	0.329608
C	0.0364749	-0.690731	-1.16981
O	-0.238275	0.216767	-1.95254
H	-0.68778	1.43279	-0.177706
H	0.90576	-0.766692	0.751518
C	-1.18881	-1.32354	0.934466
H	-2.16644	-1.03287	0.494246
H	-1.02505	-2.40788	0.767399
H	-1.2374	-1.14451	2.03079
N	0.429889	-1.90339	-1.60651
C	0.545075	-2.19856	-3.01569
H	0.651903	-2.62377	-0.957787
H	0.882268	-3.24699	-3.1716
H	1.28165	-1.51773	-3.50067
H	-0.436045	-2.06593	-3.52653
C	3.58505	-3.14013	1.45574
C	3.54788	-1.66172	1.51976
O	3.06366	-1.08177	2.48184
H	3.10889	-3.55937	2.36862
H	4.63593	-3.49462	1.40343
H	3.02939	-3.49861	0.563658
N	4.06594	-1.00933	0.476504
C	4.0632	0.428826	0.37519
C	4.03605	0.799307	-1.09572
O	4.18528	-0.0582895	-1.96403
H	4.41939	-1.49542	-0.317624
H	3.15642	0.816706	0.822316
C	5.3073	1.03269	1.0628
H	6.23778	0.643143	0.597494
H	5.30973	2.1404	1.00366
H	5.31069	0.742199	2.13608
N	3.83495	2.09402	-1.41081
C	3.78816	2.53932	-2.78401
H	3.71218	2.77271	-0.694298
H	3.61357	3.63662	-2.83588
H	2.9664	2.02728	-3.33519
H	4.7468	2.31165	-3.30394
