44
  This energy is -1.6206 and Call times are: 4686
C	-1.51495	3.07559	-0.598614
C	-0.948839	2.05751	0.31471
O	-0.739669	2.31061	1.4931
H	-1.67187	4.02371	-0.0397521
H	-2.49051	2.7294	-1.00008
H	-0.815767	3.26593	-1.44004
N	-0.682115	0.863524	-0.21974
C	-0.0892678	-0.21397	0.532656
C	0.699678	-1.08357	-0.428027
O	0.619974	-0.912408	-1.64296
H	-0.819625	0.685441	-1.18992
H	0.612763	0.194445	1.24888
C	-1.17333	-1.04678	1.25132
H	-1.88772	-1.4747	0.516084
H	-0.728469	-1.87126	1.84533
H	-1.74321	-0.388654	1.94303
N	1.49171	-2.03803	0.0989653
C	2.28372	-2.9097	-0.737156
H	1.54615	-2.15858	1.08465
H	2.86686	-3.62598	-0.117386
H	2.99793	-2.31876	-1.35519
H	1.63106	-3.49274	-1.42653
C	6.83785	3.30206	-0.81532
C	6.41107	2.26148	0.147081
O	6.32929	2.50139	1.34381
H	7.06176	4.24167	-0.264997
H	6.02851	3.49958	-1.54927
H	7.7523	2.97397	-1.35312
N	6.12713	1.06118	-0.363851
C	5.74013	-0.0629672	0.451667
C	6.17457	-1.33257	-0.256103
O	6.6026	-1.29643	-1.40814
H	6.23785	0.869772	-1.33491
H	6.27217	-0.0207279	1.39388
C	4.21441	-0.0715245	0.691161
H	3.66826	-0.125487	-0.274679
H	3.90563	-0.924666	1.32938
H	3.91795	0.870096	1.20283
N	6.08158	-2.49144	0.425357
C	6.47679	-3.74913	-0.164726
H	5.73662	-2.50001	1.3581
H	6.32561	-4.58513	0.553246
H	7.55231	-3.72625	-0.454566
H	5.87708	-3.9597	-1.07969
