44
  This energy is -2.5757 and Call times are: 6489
C	2.18482	-0.825162	2.58038
C	1.31647	-1.19433	1.43984
O	1.34181	-2.32084	0.963657
H	2.81065	-1.69926	2.86352
H	1.56532	-0.529025	3.45288
H	2.85089	0.0170568	2.29732
N	0.51685	-0.235027	0.967919
C	-0.353153	-0.430762	-0.164927
C	-0.545093	0.908703	-0.850893
O	-0.136411	1.94602	-0.332554
H	0.537171	0.688701	1.33965
H	0.128532	-1.09093	-0.875411
C	-1.71365	-1.01204	0.278238
H	-2.21302	-0.330087	0.999076
H	-2.38751	-1.1803	-0.58671
H	-1.54831	-1.98802	0.784671
N	-1.16876	0.915759	-2.04547
C	-1.39126	2.14246	-2.77478
H	-1.48868	0.0657608	-2.45072
H	-1.91818	1.94009	-3.73323
H	-0.42316	2.64306	-3.00598
H	-2.01083	2.84878	-2.17614
C	6.36493	0.717799	3.29384
C	6.49105	-0.0897859	2.05972
O	7.39157	-0.907064	1.92732
H	7.19255	0.457833	3.98906
H	5.39618	0.50527	3.79294
H	6.42596	1.79966	3.05111
N	5.57577	0.127277	1.11234
C	5.59282	-0.550718	-0.159899
C	4.94861	0.358749	-1.18919
O	4.37599	1.39143	-0.846583
H	4.87302	0.824997	1.2181
H	6.61922	-0.708919	-0.466645
C	4.8385	-1.89593	-0.0783079
H	3.78262	-1.73321	0.22613
H	4.85641	-2.43407	-1.04816
H	5.32221	-2.54213	0.686401
N	5.03547	-0.00268143	-2.4845
C	4.45729	0.803144	-3.53452
H	5.50642	-0.839775	-2.74249
H	4.63465	0.338732	-4.52955
H	4.90556	1.8231	-3.53889
H	3.35805	0.909798	-3.38806
