44
  This energy is -3.497 and Call times are: 4882
C	-1.37316	-2.06343	2.44323
C	-0.565251	-1.84965	1.22146
O	0.130618	-2.74283	0.758426
H	-1.2087	-3.09778	2.81599
H	-2.45194	-1.9303	2.21683
H	-1.06998	-1.34431	3.23319
N	-0.639862	-0.638348	0.665077
C	0.121199	-0.266718	-0.501644
C	0.371095	1.22864	-0.446785
O	-0.188068	1.93018	0.393989
H	-1.17884	0.0909114	1.07685
H	1.08647	-0.756464	-0.469413
C	-0.633775	-0.642428	-1.79551
H	-1.61967	-0.131969	-1.83407
H	-0.0518497	-0.373903	-2.70093
H	-0.812768	-1.73974	-1.8105
N	1.22998	1.75237	-1.34348
C	1.53382	3.16426	-1.36381
H	1.67583	1.16801	-2.01342
H	2.2606	3.39852	-2.1726
H	1.97506	3.4851	-0.392396
H	0.610319	3.76258	-1.53789
C	7.38994	2.91364	1.0467
C	6.60497	1.68814	1.31715
O	6.41765	1.29589	2.4606
H	7.74835	3.34001	2.00878
H	6.75735	3.66769	0.532908
H	8.26802	2.67311	0.410939
N	6.12275	1.04496	0.251242
C	5.37683	-0.184628	0.352582
C	5.59723	-0.977927	-0.921652
O	6.17598	-0.476449	-1.88356
H	6.31822	1.35393	-0.675141
H	5.76954	-0.774206	1.1716
C	3.87289	0.0980403	0.561147
H	3.46711	0.693901	-0.284037
H	3.28963	-0.840896	0.654545
H	3.73604	0.686215	1.49477
N	5.14475	-2.24686	-0.954356
C	5.31399	-3.07986	-2.12211
H	4.68251	-2.63641	-0.164627
H	4.87551	-4.088	-1.95294
H	6.3947	-3.20365	-2.363
H	4.81326	-2.6234	-3.00645
