44
  This energy is -1.9628 and Call times are: 8158
C	1.55331	1.22239	2.86455
C	0.369783	0.697591	2.14693
O	-0.642947	0.370972	2.75034
H	1.34558	1.23352	3.95662
H	1.7755	2.25764	2.53043
H	2.43505	0.575126	2.67306
N	0.474935	0.601782	0.819472
C	-0.576664	0.0694066	-0.0107545
C	0.0592055	-0.545039	-1.24351
O	1.25578	-0.388895	-1.47917
H	1.32037	0.833079	0.346594
H	-1.08367	-0.725992	0.521146
C	-1.57664	1.17597	-0.41174
H	-1.0589	1.98718	-0.966644
H	-2.39882	0.775871	-1.0398
H	-2.02365	1.61679	0.505981
N	-0.731184	-1.27023	-2.05924
C	-0.212909	-1.89726	-3.25272
H	-1.69612	-1.38872	-1.84964
H	-1.01717	-2.44794	-3.78858
H	0.596101	-2.61945	-2.99732
H	0.211216	-1.13439	-3.94502
C	3.89029	0.740887	-2.81369
C	4.66523	-0.201853	-1.97592
O	4.6395	-1.40617	-2.1889
H	3.32612	0.170163	-3.583
H	4.57456	1.45141	-3.32327
H	3.17002	1.30718	-2.18631
N	5.38207	0.335302	-0.985975
C	6.15281	-0.457502	-0.060778
C	6.23117	0.293882	1.25484
O	5.83216	1.45354	1.34252
H	5.36059	1.3134	-0.799625
H	5.63411	-1.38873	0.130001
C	7.5688	-0.729795	-0.614005
H	8.1052	0.225051	-0.799969
H	8.16752	-1.35109	0.0831654
H	7.48693	-1.27326	-1.58059
N	6.7435	-0.357606	2.31743
C	6.85262	0.274986	3.6113
H	7.05735	-1.29705	2.22784
H	7.29795	-0.423056	4.35403
H	5.84936	0.587414	3.98162
H	7.49668	1.18209	3.55226
