44
  This energy is 0.3985 and Call times are: 9216
C	-2.27457	0.501574	2.58601
C	-1.05481	-0.122763	2.02608
O	-0.267876	-0.727488	2.74124
H	-2.30222	0.333159	3.68453
H	-3.18004	0.0487783	2.13012
H	-2.26947	1.59458	2.39004
N	-0.867744	0.0147837	0.711365
C	0.293482	-0.500459	0.0297209
C	0.557667	0.373949	-1.18155
O	-0.253891	1.22941	-1.52979
H	-1.49614	0.544816	0.149182
H	1.15516	-0.418969	0.680493
C	0.0755333	-1.96806	-0.399084
H	-0.802032	-2.05069	-1.07517
H	0.967942	-2.38062	-0.912822
H	-0.123909	-2.58798	0.502176
N	1.71186	0.183372	-1.85053
C	2.05151	0.972086	-3.01189
H	2.35788	-0.510931	-1.55108
H	3.03967	0.665446	-3.42023
H	2.10054	2.05417	-2.75117
H	1.28642	0.843963	-3.81149
C	8.18836	0.756902	3.37476
C	7.40123	0.220577	2.24166
O	6.37041	-0.410701	2.4296
H	7.69732	0.471936	4.33055
H	8.24102	1.86428	3.31397
H	9.21614	0.336772	3.35956
N	7.88002	0.462758	1.01916
C	7.24819	-0.0311524	-0.178924
C	8.31951	-0.215079	-1.23723
O	9.46308	0.197752	-1.05415
H	8.742	0.942877	0.883804
H	6.81961	-1.00571	0.0189942
C	6.16118	0.948244	-0.673309
H	6.60225	1.94525	-0.886549
H	5.65771	0.572498	-1.58756
H	5.39218	1.07387	0.119912
N	7.97321	-0.8514	-2.37354
C	8.92714	-1.07709	-3.43432
H	7.04398	-1.18186	-2.50163
H	8.45115	-1.61555	-4.28327
H	9.78425	-1.68765	-3.06845
H	9.32931	-0.109863	-3.81363
