44
  This energy is -2.5133 and Call times are: 7190
C	-2.23017	2.27047	1.40854
C	-0.856697	1.81881	1.09118
O	0.105176	2.55773	1.24993
H	-2.19746	3.32275	1.76564
H	-2.66774	1.63379	2.20597
H	-2.86922	2.21838	0.501899
N	-0.734215	0.573663	0.625363
C	0.532344	0.00798821	0.232423
C	0.273357	-1.03046	-0.8428
O	-0.872846	-1.38099	-1.11677
H	-1.53076	-0.00165239	0.462908
H	1.14796	0.782141	-0.208409
C	1.24973	-0.631615	1.44135
H	0.623088	-1.43306	1.8875
H	2.23255	-1.05854	1.15444
H	1.42184	0.144554	2.21871
N	1.34031	-1.54332	-1.48671
C	1.19084	-2.53276	-2.52827
H	2.25974	-1.24417	-1.25385
H	2.18299	-2.82885	-2.93472
H	0.57464	-2.1318	-3.36541
H	0.686633	-3.44484	-2.13453
C	6.73623	-3.42118	-0.0593507
C	6.44819	-2.13724	-0.737351
O	6.54669	-2.02657	-1.95163
H	7.04702	-4.17429	-0.815711
H	5.8287	-3.79002	0.463231
H	7.5581	-3.2898	0.675725
N	6.0817	-1.12102	0.0471096
C	5.81054	0.200216	-0.462171
C	6.12472	1.20269	0.632321
O	6.37756	0.828118	1.77577
H	6.04568	-1.21546	1.03789
H	6.47669	0.407496	-1.29036
C	4.33716	0.328322	-0.907111
H	3.65345	0.126095	-0.055237
H	4.11932	1.337	-1.31409
H	4.12764	-0.419802	-1.70257
N	6.12415	2.50928	0.302438
C	6.41709	3.5349	1.27633
H	5.9212	2.79265	-0.629005
H	6.36707	4.54426	0.811656
H	7.43792	3.39428	1.69989
H	5.68666	3.49901	2.11677
