44
  This energy is -4.5855 and Call times are: 142
C	-1.52024	1.90162	-2.48704
C	-1.54655	0.828489	-1.46781
O	-2.59798	0.303223	-1.12869
H	-2.55821	2.11366	-2.824
H	-0.916181	1.5832	-3.36252
H	-1.08602	2.82828	-2.05594
N	-0.36898	0.475693	-0.947
C	-0.239217	-0.522491	0.0851575
C	0.9913	-0.19351	0.909265
O	1.77295	0.685229	0.550717
H	0.473511	0.940806	-1.20341
H	-1.09489	-0.465923	0.746413
C	-0.119613	-1.93577	-0.526046
H	0.764131	-1.99738	-1.1963
H	-0.0330497	-2.71465	0.259055
H	-1.02708	-2.15194	-1.13113
N	1.18781	-0.891105	2.04539
C	2.32812	-0.643708	2.89665
H	0.542073	-1.59546	2.32103
H	2.31197	-1.31764	3.7814
H	2.32681	0.409973	3.25863
H	3.2782	-0.816714	2.34116
C	5.21898	-3.33476	0.995863
C	5.47427	-1.89838	1.24644
O	5.73803	-1.48867	2.36849
H	5.29316	-3.89359	1.95402
H	5.9703	-3.73869	0.285147
H	4.20056	-3.47488	0.576043
N	5.39769	-1.08852	0.18784
C	5.57858	0.338719	0.281821
C	4.77218	0.991582	-0.825008
O	4.24773	0.313274	-1.70623
H	5.14173	-1.43097	-0.711643
H	5.17549	0.688608	1.22401
C	7.07137	0.714946	0.158324
H	7.48268	0.36547	-0.812622
H	7.22521	1.81025	0.243011
H	7.64325	0.219891	0.973317
N	4.64718	2.33313	-0.799664
C	3.89388	3.04129	-1.80824
H	5.07538	2.86447	-0.0762005
H	3.9085	4.13632	-1.61348
H	2.83301	2.70107	-1.81725
H	4.32345	2.85911	-2.81988
