44
  This energy is -1.2784 and Call times are: 5976
C	2.08647	2.75979	0.37795
C	0.840876	2.01734	0.675243
O	0.0925064	2.37145	1.57578
H	2.18827	3.60673	1.09084
H	2.05442	3.16245	-0.656255
H	2.96603	2.09074	0.486819
N	0.589132	0.951041	-0.0876559
C	-0.561021	0.104243	0.108914
C	-0.206693	-1.29246	-0.365673
O	0.842546	-1.50486	-0.970402
H	1.22841	0.651384	-0.790075
H	-0.780129	0.0393596	1.16741
C	-1.78317	0.645295	-0.664945
H	-1.5625	0.702109	-1.7522
H	-2.67896	0.00951095	-0.510485
H	-2.01947	1.67114	-0.306958
N	-1.07651	-2.28496	-0.092948
C	-0.821263	-3.64695	-0.500397
H	-1.91833	-2.0942	0.401042
H	-1.65265	-4.31456	-0.183663
H	0.123212	-4.02289	-0.044424
H	-0.720338	-3.71355	-1.60788
C	5.2687	0.521341	-0.638579
C	6.70084	0.787342	-0.901979
O	7.05648	1.42005	-1.88667
H	4.65711	0.96025	-1.45661
H	4.96464	0.982477	0.324567
H	5.0837	-0.57286	-0.59899
N	7.56851	0.299091	-0.0125125
C	8.99617	0.439689	-0.155927
C	9.65896	-0.739114	0.531604
O	9.00228	-1.5162	1.22197
H	7.26632	-0.248982	0.762183
H	9.25645	0.38882	-1.20583
C	9.4841	1.76966	0.459176
H	9.22663	1.81779	1.53873
H	10.58	1.89608	0.342776
H	8.98025	2.61787	-0.0536676
N	10.984	-0.904545	0.350295
C	11.6994	-2.00084	0.960647
H	11.4976	-0.267675	-0.21517
H	12.7782	-1.96441	0.692244
H	11.2862	-2.97775	0.619718
H	11.6123	-1.95762	2.07046
