44
  This energy is 0.1073 and Call times are: 9827
C	3.44027	0.521891	-0.0695235
C	2.2565	-0.36677	-0.0797677
O	2.36094	-1.55726	-0.340983
H	4.34348	-0.0663234	-0.341753
H	3.58499	0.954915	0.942548
H	3.30967	1.3418	-0.806945
N	1.08393	0.203378	0.207281
C	-0.161392	-0.522961	0.194777
C	-1.27371	0.451165	-0.144899
O	-1.05866	1.66077	-0.192975
H	1.00912	1.18176	0.377683
H	-0.133043	-1.26709	-0.591412
C	-0.424756	-1.19002	1.56259
H	-0.464426	-0.425961	2.368
H	-1.37406	-1.76389	1.56146
H	0.405438	-1.89249	1.79424
N	-2.49531	-0.0582851	-0.398264
C	-3.61357	0.79139	-0.735502
H	-2.64882	-1.04008	-0.358481
H	-4.53007	0.185196	-0.908024
H	-3.3993	1.37383	-1.66077
H	-3.82041	1.51377	0.0870121
C	4.06398	0.970342	-1.1561
C	5.0622	0.810504	-0.0748223
O	4.89422	1.32393	1.02272
H	3.22856	1.60783	-0.793413
H	3.65819	-0.0199428	-1.45176
H	4.53036	1.45693	-2.03859
N	6.14311	0.083704	-0.367714
C	7.22081	-0.124622	0.567019
C	8.49956	-0.328912	-0.223322
O	8.47011	-0.463278	-1.44512
H	6.28511	-0.293624	-1.27838
H	7.3512	0.767685	1.16652
C	6.94049	-1.34673	1.46875
H	6.81709	-2.26432	0.854877
H	7.7567	-1.50933	2.20216
H	5.99632	-1.17874	2.03148
N	9.66073	-0.348606	0.460277
C	10.9281	-0.531977	-0.207735
H	9.66465	-0.234088	1.44818
H	11.7646	-0.518281	0.525275
H	11.1009	0.27903	-0.951846
H	10.9506	-1.50628	-0.747526
