44
  This energy is -6.6723 and Call times are: 7805
C	-2.9029	-1.12914	1.5527
C	-1.54734	-1.35418	1.0023
O	-0.948261	-2.40155	1.20363
H	-3.21262	-2.01961	2.14179
H	-3.62977	-0.973242	0.728017
H	-2.90299	-0.240213	2.21821
N	-1.02511	-0.356849	0.284679
C	0.300748	-0.41135	-0.278955
C	0.831257	1.00651	-0.377945
O	0.0978905	1.96975	-0.163351
H	-1.50833	0.505579	0.163892
H	0.95306	-0.953566	0.394189
C	0.281502	-1.08069	-1.67067
H	-0.379319	-0.518775	-2.36465
H	1.29861	-1.14114	-2.10925
H	-0.117597	-2.11412	-1.57539
N	2.13004	1.16714	-0.699499
C	2.7244	2.47877	-0.811455
H	2.7086	0.375437	-0.865467
H	3.80015	2.40114	-1.08342
H	2.64583	3.0293	0.153953
H	2.20705	3.07921	-1.59437
C	3.71888	0.926182	3.01019
C	4.65887	1.16606	1.89214
O	5.20567	2.25059	1.74647
H	3.61721	1.8563	3.61052
H	4.10215	0.115755	3.66521
H	2.72037	0.641749	2.61631
N	4.86846	0.141092	1.06274
C	5.72254	0.235395	-0.0949362
C	5.21642	-0.744003	-1.13714
O	4.33937	-1.56022	-0.86094
H	4.38465	-0.722703	1.17064
H	5.64106	1.22844	-0.519023
C	7.1892	-0.0770129	0.274598
H	7.27495	-1.09963	0.699966
H	7.85906	0.00583187	-0.605713
H	7.53593	0.646782	1.04417
N	5.75577	-0.678947	-2.37038
C	5.33297	-1.56699	-3.42811
H	6.46146	-0.00898885	-2.57588
H	5.89336	-1.35672	-4.36566
H	4.24526	-1.44216	-3.63448
H	5.51074	-2.62942	-3.14391
