44
  This energy is -2.0138 and Call times are: 7974
C	3.29718	-0.314425	-1.06883
C	2.20476	0.443562	-0.418285
O	2.43215	1.46832	0.209858
H	4.26654	0.190064	-0.864571
H	3.13592	-0.351967	-2.1667
H	3.33826	-1.34837	-0.665889
N	0.973598	-0.054267	-0.555339
C	-0.184754	0.547869	0.0563909
C	-1.20316	-0.545514	0.318915
O	-1.03914	-1.67931	-0.127532
H	0.809553	-0.911494	-1.03505
H	0.0944091	0.965726	1.01561
C	-0.785546	1.63975	-0.855794
H	-1.08181	1.20945	-1.83615
H	-1.66995	2.12058	-0.38979
H	-0.0205217	2.42512	-1.04094
N	-2.28203	-0.229758	1.06213
C	-3.30108	-1.20645	1.36838
H	-2.39518	0.691981	1.41803
H	-4.10506	-0.754261	1.98996
H	-2.86605	-2.06547	1.92883
H	-3.76062	-1.60137	0.433497
C	5.1012	-1.2427	2.43948
C	6.2879	-1.36511	1.56318
O	7.10081	-2.26557	1.72055
H	5.12223	-2.05195	3.20141
H	4.17143	-1.33752	1.84008
H	5.108	-0.260747	2.95793
N	6.41592	-0.443879	0.605405
C	7.53963	-0.406627	-0.297054
C	7.75662	1.03317	-0.723044
O	6.93837	1.90492	-0.436295
H	5.76765	0.306836	0.515751
H	8.43095	-0.725206	0.228958
C	7.28796	-1.30368	-1.5288
H	6.3796	-0.970739	-2.07476
H	8.15185	-1.29434	-2.2246
H	7.12395	-2.35084	-1.19282
N	8.87706	1.31831	-1.41537
C	9.17088	2.66141	-1.85801
H	9.5293	0.600187	-1.63434
H	10.1363	2.69132	-2.4097
H	9.24236	3.35465	-0.988761
H	8.36877	3.03681	-2.53391
