44
  This energy is -0.4328 and Call times are: 7438
C	-2.47967	-2.23867	-0.975868
C	-1.89428	-1.2823	-0.00951899
O	-2.5342	-0.88468	0.954226
H	-3.52337	-2.47366	-0.673658
H	-1.88913	-3.17879	-0.989414
H	-2.49152	-1.79513	-1.99382
N	-0.64332	-0.884144	-0.252323
C	0.0448917	0.0759641	0.574185
C	1.05212	0.809337	-0.291387
O	1.28725	0.435064	-1.43871
H	-0.149823	-1.18504	-1.06336
H	-0.664644	0.809809	0.935657
C	0.752933	-0.621026	1.75661
H	1.48853	-1.36649	1.38619
H	1.27501	0.109213	2.40831
H	-0.00203753	-1.15774	2.37167
N	1.66789	1.88394	0.239721
C	2.63722	2.64746	-0.51103
H	1.4614	2.17388	1.16836
H	3.02997	3.49143	0.0978109
H	2.17683	3.06641	-1.43504
H	3.49502	2.0043	-0.81378
C	5.28858	-2.58001	-1.47482
C	5.47995	-1.15307	-1.13074
O	4.7808	-0.282263	-1.63002
H	4.47005	-2.67118	-2.22151
H	5.01394	-3.15882	-0.568015
H	6.22087	-2.99685	-1.91089
N	6.45048	-0.878521	-0.256045
C	6.78413	0.465908	0.143632
C	8.25413	0.497193	0.517371
O	8.90314	-0.54312	0.608178
H	7.03808	-1.59419	0.110553
H	6.65137	1.13253	-0.699346
C	5.91268	0.919532	1.33529
H	6.0565	0.24209	2.20387
H	6.1505	1.95826	1.64354
H	4.84091	0.881147	1.04176
N	8.81826	1.70137	0.735856
C	10.2124	1.82974	1.09094
H	8.27786	2.53219	0.653581
H	10.4864	2.899	1.22816
H	10.8619	1.40105	0.293643
H	10.4277	1.28779	2.04018
