44
  This energy is -3.3083 and Call times are: 5569
C	-1.63829	-2.86524	1.10412
C	-1.49175	-1.39405	1.03149
O	-2.37635	-0.649346	1.43062
H	-2.63145	-3.11449	1.537
H	-0.845795	-3.29732	1.75065
H	-1.56798	-3.30745	0.0879552
N	-0.351754	-0.936311	0.508753
C	-0.0822369	0.469018	0.332767
C	0.860113	0.625933	-0.845753
O	1.38765	-0.355624	-1.36534
H	0.341633	-1.55503	0.150609
H	-1.00272	0.98038	0.0800673
C	0.541273	1.07524	1.60908
H	1.49105	0.557954	1.8628
H	0.740678	2.16006	1.491
H	-0.161952	0.942003	2.46
N	1.08777	1.87314	-1.30256
C	1.9654	2.11931	-2.42298
H	0.648526	2.65446	-0.871656
H	2.02208	3.20745	-2.64647
H	1.59708	1.59326	-3.33341
H	2.99423	1.75198	-2.20449
C	6.38058	0.599019	-3.37888
C	6.20259	1.06365	-1.98476
O	6.45606	2.21676	-1.6646
H	6.77193	1.43555	-3.99769
H	5.40802	0.266063	-3.79842
H	7.10477	-0.242115	-3.4124
N	5.7569	0.158907	-1.11001
C	5.57489	0.45008	0.290219
C	5.76475	-0.837558	1.06965
O	5.86423	-1.91657	0.488674
H	5.59399	-0.78661	-1.37706
H	6.34405	1.13987	0.614563
C	4.17216	1.04039	0.553171
H	3.38267	0.328707	0.23029
H	4.02478	1.28174	1.62581
H	4.05251	1.97746	-0.0332687
N	5.82812	-0.75174	2.41302
C	6.01259	-1.92328	3.23742
H	5.74969	0.130782	2.86477
H	6.03897	-1.64616	4.31433
H	6.96898	-2.43541	2.9838
H	5.18103	-2.64819	3.08198
