44
  This energy is -3.1585 and Call times are: 4088
C	0.3826	-2.29318	-2.58991
C	0.267838	-1.95756	-1.15278
O	0.109761	-2.82974	-0.309738
H	0.284072	-3.39293	-2.71925
H	1.37144	-1.97261	-2.98
H	-0.422525	-1.79005	-3.16587
N	0.344039	-0.662401	-0.837915
C	0.206718	-0.1778	0.512961
C	-0.356125	1.22985	0.455564
O	-0.459406	1.8236	-0.616118
H	0.431807	0.0391581	-1.53933
H	-0.512331	-0.791415	1.04124
C	1.56737	-0.187531	1.24355
H	2.30237	0.450248	0.707776
H	1.47242	0.170418	2.2892
H	1.96411	-1.226	1.26665
N	-0.743359	1.79619	1.61545
C	-1.29575	3.13007	1.65794
H	-0.65579	1.29841	2.47196
H	-1.55295	3.41615	2.70161
H	-2.22042	3.19216	1.03954
H	-0.564634	3.8711	1.2611
C	6.66794	1.2857	3.06978
C	5.62176	0.971211	2.07091
O	4.43386	1.05154	2.35173
H	6.18544	1.56191	4.03245
H	7.28678	2.13868	2.72019
H	7.31807	0.40068	3.23458
N	6.04836	0.597471	0.862306
C	5.1504	0.218689	-0.200114
C	5.87058	-0.76919	-1.09845
O	7.07193	-0.989254	-0.956911
H	7.0186	0.497298	0.661156
H	4.29427	-0.293267	0.221268
C	4.69852	1.45517	-1.00768
H	5.57566	1.97474	-1.44894
H	3.99581	1.17829	-1.82011
H	4.18113	2.16782	-0.328867
N	5.14549	-1.39747	-2.04477
C	5.74409	-2.35802	-2.9421
H	4.17372	-1.20924	-2.14123
H	4.98519	-2.76412	-3.64665
H	6.18292	-3.20831	-2.3714
H	6.55826	-1.88526	-3.53772
