44
  This energy is -2.5938 and Call times are: 8498
C	-1.36975	2.81393	1.52258
C	-1.12562	1.96278	0.336378
O	-1.72699	2.15075	-0.712162
H	-2.15057	3.5671	1.27979
H	-0.437679	3.34315	1.81225
H	-1.72163	2.19296	2.37328
N	-0.223121	0.989505	0.479933
C	0.0903661	0.0539956	-0.571308
C	0.539711	-1.24526	0.070244
O	0.744601	-1.31205	1.28073
H	0.22827	0.823162	1.35197
H	-0.806938	-0.159787	-1.13856
C	1.19501	0.612104	-1.49517
H	2.11922	0.821687	-0.915575
H	1.43558	-0.0931911	-2.31688
H	0.847633	1.56667	-1.94737
N	0.695986	-2.31716	-0.731399
C	1.11524	-3.59689	-0.20919
H	0.521441	-2.24456	-1.70779
H	1.18517	-4.35046	-1.02434
H	0.38931	-3.96821	0.550031
H	2.11331	-3.51437	0.278867
C	5.68228	1.17962	-3.27166
C	6.33099	0.665459	-2.04448
O	7.5073	0.329717	-2.04344
H	6.41748	1.17439	-4.10551
H	5.32887	2.21978	-3.11065
H	4.82103	0.535397	-3.54788
N	5.56348	0.589519	-0.954736
C	6.04125	0.0694873	0.302188
C	4.86132	-0.526377	1.04668
O	3.71286	-0.366575	0.637752
H	4.5969	0.827968	-0.981617
H	6.74234	-0.733838	0.113074
C	6.70596	1.1818	1.14253
H	5.98402	2.00128	1.34575
H	7.09034	0.791028	2.10693
H	7.56154	1.60878	0.575075
N	5.12023	-1.23939	2.1605
C	4.06139	-1.84843	2.93128
H	6.05638	-1.36111	2.47335
H	4.47616	-2.39114	3.80916
H	3.4898	-2.57426	2.30859
H	3.34964	-1.07524	3.30104
