44
  This energy is -3.1556 and Call times are: 6117
C	2.44161	1.15801	-2.19323
C	1.12209	1.27463	-1.53262
O	0.46132	2.30077	-1.61524
H	2.68023	2.11384	-2.70832
H	2.42281	0.34018	-2.94393
H	3.22987	0.9495	-1.43941
N	0.704381	0.206845	-0.848706
C	-0.538045	0.184772	-0.117645
C	-0.387379	-0.781725	1.04198
O	0.601268	-1.50699	1.13297
H	1.27176	-0.606456	-0.756548
H	-0.723082	1.16574	0.301989
C	-1.70787	-0.243139	-1.03069
H	-1.52344	-1.25388	-1.45309
H	-2.67238	-0.250645	-0.482789
H	-1.79445	0.473518	-1.87641
N	-1.36817	-0.807699	1.96578
C	-1.30856	-1.69117	3.10688
H	-2.15838	-0.210392	1.87714
H	-2.20721	-1.56414	3.74994
H	-0.404456	-1.47784	3.72199
H	-1.25964	-2.75461	2.7785
C	6.04634	3.04305	-1.67091
C	6.38557	2.14286	-0.545861
O	7.27871	2.42288	0.241734
H	6.72374	3.92433	-1.65325
H	4.99723	3.39423	-1.57709
H	6.17302	2.51173	-2.63772
N	5.66848	1.02113	-0.446345
C	5.91029	0.0272917	0.569705
C	5.48838	-1.32263	0.0208323
O	4.88211	-1.40737	-1.04545
H	4.97221	0.787466	-1.119
H	6.97268	-0.0248129	0.772774
C	5.12775	0.355755	1.86005
H	4.03693	0.398928	1.65439
H	5.3165	-0.394765	2.65479
H	5.44681	1.35104	2.23944
N	5.80929	-2.41733	0.738236
C	5.45406	-3.74434	0.292115
H	6.30369	-2.32887	1.59662
H	5.80558	-4.51047	1.01787
H	5.91518	-3.96229	-0.698415
H	4.34917	-3.84117	0.187361
