44
  This energy is -3.9965 and Call times are: 6952
C	-0.00281323	0.202733	-3.47442
C	-0.47336	-0.392316	-2.20334
O	-1.43124	-1.15269	-2.17675
H	-0.655408	-0.142749	-4.30547
H	1.04102	-0.113712	-3.68182
H	-0.0487055	1.31081	-3.41832
N	0.201023	-0.0510564	-1.10282
C	-0.164443	-0.515118	0.212333
C	0.273363	0.529881	1.22122
O	0.978066	1.478	0.880381
H	0.953071	0.601068	-1.13485
H	-1.24255	-0.593768	0.276591
C	0.497188	-1.87614	0.520725
H	1.60359	-1.79348	0.465281
H	0.212422	-2.25078	1.52525
H	0.168921	-2.6233	-0.234488
N	-0.144386	0.383773	2.49408
C	0.217673	1.33166	3.52199
H	-0.717469	-0.387754	2.7498
H	-0.222722	1.03819	4.50033
H	-0.150442	2.35098	3.2636
H	1.3246	1.3832	3.63686
C	9.1765	-0.0676591	-3.02115
C	8.67369	0.641562	-1.8231
O	9.05481	1.77139	-1.54988
H	9.91214	0.577904	-3.54836
H	8.33736	-0.294442	-3.71192
H	9.67647	-1.01364	-2.72412
N	7.79279	-0.0193114	-1.06834
C	7.24716	0.523006	0.150971
C	6.90191	-0.633517	1.07012
O	6.94503	-1.79385	0.665797
H	7.52326	-0.954109	-1.28133
H	8.00458	1.11561	0.648716
C	5.99378	1.37793	-0.137831
H	5.2124	0.767741	-0.638988
H	5.57236	1.81251	0.791723
H	6.2682	2.21331	-0.818405
N	6.55706	-0.341745	2.33975
C	6.21759	-1.37718	3.2878
H	6.53186	0.602966	2.64952
H	5.96321	-0.936668	4.27698
H	7.07198	-2.07877	3.42587
H	5.34188	-1.96577	2.93023
