44
  This energy is -2.2645 and Call times are: 2344
C	-0.804619	-3.15005	-1.24196
C	-0.60817	-1.69291	-1.41311
O	-0.578965	-1.18445	-2.52532
H	-0.890561	-3.62897	-2.24152
H	-1.73485	-3.34604	-0.668382
H	0.0607515	-3.59237	-0.704766
N	-0.464487	-0.978069	-0.294741
C	-0.223017	0.443268	-0.302078
C	0.56209	0.796095	0.947192
O	0.740448	-0.0357614	1.83484
H	-0.449591	-1.4119	0.601605
H	0.395726	0.696101	-1.15405
C	-1.55222	1.22846	-0.346051
H	-2.18287	0.977357	0.533306
H	-1.37932	2.32401	-0.366061
H	-2.11356	0.948639	-1.26417
N	1.05971	2.04493	1.04108
C	1.82436	2.4695	2.19053
H	0.908394	2.70274	0.310694
H	2.14543	3.52869	2.07987
H	2.73437	1.83828	2.31186
H	1.21721	2.38229	3.12053
C	5.67092	-3.29684	1.10766
C	6.42026	-2.07849	0.72653
O	7.61819	-1.97569	0.95194
H	6.36082	-4.01105	1.60746
H	5.24403	-3.78173	0.204665
H	4.85107	-3.03771	1.81035
N	5.71769	-1.11131	0.1321
C	6.29884	0.149223	-0.257614
C	5.20977	1.20464	-0.217659
O	4.03291	0.889271	-0.0525944
H	4.73502	-1.193	-0.00764713
H	7.05146	0.434749	0.466724
C	6.91424	0.0594315	-1.67128
H	6.1403	-0.22318	-2.41639
H	7.3772	1.01992	-1.9773
H	7.70294	-0.7243	-1.6791
N	5.58122	2.49212	-0.36056
C	4.61509	3.56538	-0.330411
H	6.5388	2.72792	-0.489049
H	5.11607	4.54937	-0.464678
H	4.07252	3.57823	0.642588
H	3.86346	3.44057	-1.14319
