44
  This energy is -11.4572 and Call times are: 3199
C	-1.04185	-2.60278	-2.06222
C	0.00299748	-1.6972	-1.53368
O	1.18792	-1.895	-1.76443
H	-0.560116	-3.42386	-2.63636
H	-1.72562	-2.04576	-2.7367
H	-1.62526	-3.04308	-1.22625
N	-0.42124	-0.667052	-0.798021
C	0.478954	0.274728	-0.180558
C	-0.188949	0.818316	1.06843
O	-1.36891	0.571189	1.30997
H	-1.38607	-0.542509	-0.584815
H	1.37712	-0.242543	0.133063
C	0.826979	1.42366	-1.1522
H	-0.0930709	1.96131	-1.466
H	1.53046	2.14819	-0.693181
H	1.30729	1.00202	-2.06207
N	0.558572	1.56981	1.9006
C	0.0100456	2.12522	3.11584
H	1.51269	1.75542	1.69019
H	0.780777	2.71134	3.66325
H	-0.35672	1.31532	3.78728
H	-0.847111	2.79939	2.88798
C	4.9739	3.06424	1.58004
C	4.45685	1.83612	0.935429
O	3.27036	1.54359	0.990885
H	4.13761	3.59296	2.08692
H	5.41639	3.73935	0.817684
H	5.74512	2.80426	2.3355
N	5.35287	1.07675	0.300696
C	5.00837	-0.169405	-0.337248
C	6.23129	-1.06689	-0.313439
O	7.32485	-0.631918	0.0424119
H	6.32184	1.30687	0.299143
H	4.23473	-0.663068	0.237555
C	4.53753	0.0658021	-1.78922
H	5.33474	0.562726	-2.38215
H	4.25616	-0.884892	-2.28675
H	3.64682	0.731344	-1.78294
N	6.07122	-2.35185	-0.68663
C	7.17688	-3.28118	-0.690513
H	5.17773	-2.68634	-0.967457
H	6.84366	-4.28742	-1.02767
H	7.61076	-3.37971	0.33092
H	7.98256	-2.93067	-1.37548
