44
  This energy is -3.2287 and Call times are: 6783
C	2.19029	1.04422	2.49497
C	1.25981	1.3219	1.37773
O	0.873665	2.45869	1.14321
H	2.41902	1.9932	3.02696
H	3.13676	0.61285	2.10656
H	1.72689	0.333393	3.21126
N	0.871534	0.269803	0.653356
C	-0.0642265	0.375846	-0.438279
C	-0.802607	-0.94399	-0.558203
O	-0.448077	-1.92533	0.092173
H	1.16226	-0.654919	0.881897
H	-0.799063	1.13664	-0.206252
C	0.663856	0.710878	-1.75846
H	1.41044	-0.0747055	-2.00241
H	-0.0474295	0.808854	-2.60404
H	1.20367	1.67633	-1.64508
N	-1.85943	-0.995643	-1.39275
C	-2.62616	-2.20718	-1.56742
H	-2.13358	-0.190014	-1.90741
H	-3.45347	-2.04775	-2.29361
H	-3.06835	-2.53523	-0.598852
H	-1.97911	-3.03039	-1.94794
C	4.2609	3.01459	-0.0229165
C	5.49212	2.22198	0.193868
O	6.57468	2.76686	0.359976
H	4.51559	4.09671	-0.020801
H	3.52993	2.81584	0.788829
H	3.80573	2.75446	-1.00181
N	5.35085	0.894411	0.194595
C	6.46343	-0.00919571	0.350169
C	6.12776	-1.30124	-0.370604
O	4.99803	-1.50041	-0.813026
H	4.46996	0.464948	0.017243
H	7.33617	0.412273	-0.132853
C	6.74905	-0.280658	1.84348
H	5.85746	-0.722825	2.33704
H	7.61245	-0.964237	1.97681
H	6.98438	0.679443	2.35256
N	7.11129	-2.21138	-0.513224
C	6.88646	-3.46752	-1.18979
H	8.02008	-2.03044	-0.152061
H	7.81596	-4.07831	-1.2042
H	6.56436	-3.29465	-2.24224
H	6.08971	-4.05323	-0.676691
