44
  This energy is -1.8493 and Call times are: 6606
C	0.335501	-1.20653	3.24722
C	-0.485816	-0.71689	2.11725
O	-1.70503	-0.815555	2.13146
H	-0.329447	-1.65281	4.01829
H	0.900041	-0.36584	3.7025
H	1.04793	-1.98194	2.8947
N	0.17673	-0.170758	1.09492
C	-0.481378	0.311376	-0.093778
C	0.488638	0.189601	-1.25386
O	1.66702	-0.103773	-1.06135
H	1.17189	-0.134654	1.07985
H	-1.33002	-0.323887	-0.314862
C	-0.933704	1.77755	0.0822086
H	-0.0620773	2.43137	0.298608
H	-1.45415	2.156	-0.821361
H	-1.63649	1.84421	0.941277
N	0.0096005	0.405608	-2.49479
C	0.85722	0.306662	-3.66009
H	-0.947784	0.637946	-2.63083
H	0.278881	0.51888	-4.58622
H	1.29113	-0.71602	-3.74448
H	1.69836	1.03445	-3.59723
C	3.95366	-1.51111	2.63661
C	4.71219	-0.382908	2.051
O	4.78637	0.695246	2.62414
H	3.49993	-1.18847	3.59884
H	4.6315	-2.36922	2.82876
H	3.14394	-1.82741	1.94569
N	5.3002	-0.610453	0.874199
C	6.0367	0.402761	0.160387
C	5.94679	0.0962839	-1.3227
O	5.4647	-0.963167	-1.71876
H	5.19665	-1.48038	0.400539
H	5.56664	1.36516	0.319966
C	7.51147	0.437893	0.617614
H	7.99711	-0.546073	0.444373
H	8.08588	1.22342	0.0851531
H	7.5528	0.65579	1.70718
N	6.40476	1.02743	-2.18249
C	6.35532	0.82587	-3.61186
H	6.78762	1.88025	-1.84309
H	6.77838	1.704	-4.14772
H	5.30433	0.680761	-3.95195
H	6.93982	-0.0771067	-3.90193
