44
  This energy is 0.1134 and Call times are: 7708
C	-3.21889	-0.993827	0.87394
C	-2.27905	-0.0882227	0.175561
O	-2.67782	0.730068	-0.641627
H	-4.25259	-0.798622	0.514454
H	-3.1796	-0.815565	1.96912
H	-2.95876	-2.05244	0.662384
N	-0.987279	-0.219184	0.48629
C	0.0498435	0.561282	-0.141252
C	1.32851	-0.255082	-0.129964
O	1.39794	-1.30796	0.501179
H	-0.673687	-0.917696	1.12316
H	-0.212076	0.736155	-1.17733
C	0.256264	1.90108	0.598732
H	0.535293	1.72214	1.659
H	1.04281	2.51722	0.116828
H	-0.69406	2.47818	0.584915
N	2.37438	0.211262	-0.840382
C	3.63002	-0.500633	-0.893011
H	2.29769	1.06304	-1.34799
H	4.36391	0.0428602	-1.52802
H	3.48592	-1.52025	-1.31833
H	4.06273	-0.610335	0.127707
C	6.26725	-2.66896	1.89487
C	6.84029	-2.10633	0.651387
O	7.27248	-2.83372	-0.232087
H	6.32884	-3.77835	1.8585
H	5.20227	-2.37121	1.99437
H	6.83624	-2.30618	2.77675
N	6.85833	-0.774828	0.555706
C	7.4232	-0.0807437	-0.574662
C	7.92323	1.27014	-0.0985627
O	7.6664	1.67322	1.03425
H	6.54035	-0.195422	1.30071
H	8.28087	-0.631707	-0.939994
C	6.37457	0.0941367	-1.69495
H	5.49915	0.668414	-1.32362
H	6.80124	0.615024	-2.5765
H	6.0169	-0.90649	-2.0223
N	8.66144	2.00148	-0.956572
C	9.1848	3.29667	-0.58949
H	8.86217	1.65667	-1.86755
H	9.76493	3.73882	-1.42925
H	9.85722	3.21235	0.294832
H	8.35728	3.99543	-0.328567
