44
  This energy is -1.2588 and Call times are: 1560
C	0.775444	1.31921	3.12587
C	-0.0856887	1.23279	1.92499
O	-1.1887	1.76102	1.89768
H	0.24533	1.89207	3.91751
H	1.72443	1.84029	2.8796
H	1.00132	0.301656	3.50883
N	0.407572	0.550469	0.888881
C	-0.330327	0.343446	-0.332269
C	0.137099	-0.959933	-0.952165
O	1.11434	-1.55598	-0.503336
H	1.28988	0.0914612	0.940936
H	-1.38192	0.231083	-0.0995312
C	-0.115047	1.5172	-1.31268
H	0.962439	1.62624	-1.56
H	-0.689086	1.37624	-2.25136
H	-0.456561	2.46153	-0.835233
N	-0.560711	-1.43933	-2.00062
C	-0.193423	-2.67531	-2.65149
H	-1.35106	-0.944904	-2.34698
H	-0.888388	-2.89956	-3.49051
H	-0.228593	-3.52426	-1.93084
H	0.841043	-2.61202	-3.06017
C	4.22273	0.903213	-3.28147
C	4.9922	1.05995	-2.02668
O	5.9953	1.75868	-1.98235
H	4.71743	1.48329	-4.09056
H	3.18874	1.28453	-3.14649
H	4.18634	-0.166571	-3.57695
N	4.53191	0.399224	-0.9618
C	5.19701	0.419352	0.317184
C	4.88976	-0.883785	1.03063
O	4.05334	-1.66536	0.58202
H	3.73746	-0.198166	-1.02371
H	6.26807	0.457541	0.162283
C	4.72893	1.62345	1.16353
H	3.63175	1.5791	1.33162
H	5.24411	1.65789	2.14533
H	4.95653	2.56561	0.618675
N	5.57057	-1.15279	2.16206
C	5.34921	-2.37091	2.90594
H	6.2464	-0.509955	2.50715
H	6.00398	-2.40757	3.80436
H	5.5699	-3.26215	2.27485
H	4.28907	-2.43944	3.24144
