44
  This energy is -0.9939 and Call times are: 7410
C	2.49796	-0.813272	2.28286
C	1.46472	0.105294	1.7539
O	1.10957	1.09018	2.38657
H	2.82847	-0.457499	3.2829
H	3.37453	-0.836183	1.60181
H	2.08274	-1.83807	2.3852
N	0.949791	-0.204163	0.561653
C	-0.0940225	0.569813	-0.0628273
C	-0.90292	-0.356681	-0.950999
O	-0.526144	-1.50623	-1.17073
H	1.21962	-1.03153	0.0773833
H	-0.762008	0.949883	0.700044
C	0.499858	1.73096	-0.890047
H	1.17702	1.34095	-1.67959
H	-0.29447	2.34273	-1.3647
H	1.09407	2.39147	-0.221486
N	-2.0462	0.123449	-1.47864
C	-2.88411	-0.687178	-2.33127
H	-2.33662	1.05491	-1.28602
H	-3.77762	-0.114331	-2.66401
H	-3.23241	-1.59648	-1.78986
H	-2.32254	-1.0174	-3.23501
C	7.97089	2.87764	-1.53014
C	6.95753	1.8084	-1.3854
O	5.87829	1.87752	-1.95713
H	7.56804	3.67898	-2.18697
H	8.89596	2.46871	-1.98815
H	8.2116	3.31363	-0.537646
N	7.28826	0.779485	-0.601598
C	6.3904	-0.315287	-0.329782
C	6.72976	-0.876858	1.03808
O	7.73736	-0.507621	1.63818
H	8.1543	0.757137	-0.110352
H	5.37526	0.0586587	-0.282165
C	6.51365	-1.41132	-1.41088
H	7.55245	-1.8027	-1.4529
H	5.81731	-2.25353	-1.22033
H	6.26866	-0.976104	-2.40431
N	5.88534	-1.78296	1.56906
C	6.12362	-2.36806	2.86793
H	5.07302	-2.0662	1.07008
H	5.31779	-3.08926	3.1282
H	6.15542	-1.57934	3.65417
H	7.09716	-2.9095	2.88251
