44
  This energy is -2.2289 and Call times are: 8690
C	-0.0308808	-2.84331	2.00682
C	-0.424651	-1.4452	1.72155
O	-1.28343	-0.881392	2.38565
H	-0.637714	-3.2302	2.85414
H	1.04337	-2.88947	2.2836
H	-0.210488	-3.4809	1.11558
N	0.204597	-0.846543	0.707633
C	-0.100673	0.497074	0.283295
C	0.20847	0.607041	-1.19788
O	0.792895	-0.299394	-1.78826
H	0.872157	-1.33201	0.150361
H	-1.16127	0.67809	0.405759
C	0.721133	1.52928	1.08605
H	1.80934	1.35053	0.952324
H	0.484829	2.56845	0.778145
H	0.484934	1.42532	2.1676
N	-0.187223	1.725	-1.8379
C	0.0585034	1.91564	-3.24838
H	-0.662454	2.44565	-1.34405
H	-0.342135	2.89601	-3.58838
H	-0.430537	1.11143	-3.8445
H	1.15117	1.88934	-3.46408
C	5.73261	-3.44357	-0.500065
C	6.44653	-2.14787	-0.44873
O	7.66842	-2.09683	-0.477142
H	6.47457	-4.27018	-0.545407
H	5.08765	-3.48964	-1.40265
H	5.10674	-3.57187	0.408176
N	5.68563	-1.05382	-0.368262
C	6.2364	0.274733	-0.267495
C	5.24622	1.14121	0.487702
O	4.11987	0.725609	0.75288
H	4.69354	-1.11372	-0.304754
H	7.14694	0.240524	0.317625
C	6.51421	0.864441	-1.66761
H	5.57844	0.909534	-2.26456
H	6.95145	1.88188	-1.60318
H	7.23489	0.210121	-2.20502
N	5.64963	2.37163	0.861
C	4.77791	3.26471	1.58811
H	6.56622	2.68863	0.640876
H	5.29187	4.22749	1.80293
H	4.46809	2.80914	2.55648
H	3.85779	3.48207	0.998805
