44
  This energy is -0.7713 and Call times are: 4714
C	0.97315	0.167695	-3.3373
C	-0.0626942	0.175621	-2.27989
O	-1.21779	0.493018	-2.52771
H	0.520321	0.497524	-4.29752
H	1.38122	-0.856881	-3.46561
H	1.79712	0.862872	-3.07104
N	0.336149	-0.177712	-1.05578
C	-0.546943	-0.176917	0.0838337
C	0.284693	0.0796357	1.32646
O	1.51304	0.0814628	1.27289
H	1.28864	-0.393968	-0.861222
H	-1.24926	0.642081	-0.00904028
C	-1.29631	-1.52218	0.202022
H	-0.57651	-2.36165	0.307921
H	-1.98982	-1.52906	1.06777
H	-1.8918	-1.69292	-0.721334
N	-0.370945	0.3121	2.48064
C	0.336544	0.57154	3.71284
H	-1.36521	0.3106	2.50325
H	-0.377892	0.738365	4.54889
H	0.978179	1.477	3.6142
H	0.992348	-0.28906	3.97823
C	6.7205	1.37628	3.18519
C	7.2664	1.08622	1.8402
O	8.2954	1.61782	1.44655
H	7.37281	2.11886	3.69402
H	6.68959	0.448268	3.79396
H	5.69618	1.7965	3.09997
N	6.57508	0.222659	1.09271
C	6.95757	-0.126038	-0.252901
C	5.70267	-0.498073	-1.01996
O	4.62584	-0.627883	-0.440908
H	5.71729	-0.170529	1.41122
H	7.38708	0.741425	-0.738338
C	7.96119	-1.29992	-0.254522
H	7.5172	-2.19338	0.234001
H	8.27404	-1.56878	-1.28426
H	8.86804	-1.00823	0.318954
N	5.81218	-0.670949	-2.35193
C	4.67088	-1.0207	-3.16512
H	6.69117	-0.557536	-2.80313
H	4.96421	-1.11749	-4.23368
H	3.87975	-0.239997	-3.08821
H	4.23323	-1.98963	-2.8323
