44
  This energy is -0.0063 and Call times are: 9945
C	-0.846546	-0.278562	-3.36429
C	-0.927855	0.401419	-2.05198
O	-1.43644	1.50863	-1.94321
H	-1.28532	0.378598	-4.14628
H	-1.41387	-1.23257	-3.33679
H	0.213263	-0.486287	-3.62265
N	-0.417043	-0.257729	-1.0094
C	-0.384157	0.292968	0.322594
C	0.80356	-0.305363	1.05258
O	1.44458	-1.23143	0.559421
H	0.0303778	-1.14051	-1.12064
H	-0.221249	1.36188	0.263295
C	-1.69526	-0.0138948	1.07897
H	-1.85749	-1.1106	1.14928
H	-1.68783	0.416851	2.10118
H	-2.55149	0.426411	0.522774
N	1.13101	0.219752	2.24969
C	2.24905	-0.281336	3.01459
H	0.60286	0.971521	2.63044
H	2.35572	0.279941	3.96895
H	3.19714	-0.177023	2.4388
H	2.10847	-1.35987	3.25572
C	4.53161	2.97442	-0.897615
C	5.74503	2.15483	-0.680743
O	6.84365	2.53824	-1.05816
H	4.80895	3.90527	-1.43841
H	4.07499	3.24744	0.0769153
H	3.79334	2.41136	-1.5067
N	5.56883	0.986735	-0.0587281
C	6.6472	0.0614216	0.185127
C	6.06841	-1.34045	0.221584
O	4.85204	-1.51979	0.221384
H	4.66253	0.669878	0.205983
H	7.34545	0.10071	-0.641629
C	7.36304	0.386423	1.51448
H	6.64938	0.335927	2.3643
H	8.20426	-0.310633	1.70678
H	7.77167	1.41949	1.46825
N	6.93332	-2.37359	0.245381
C	6.47463	-3.74285	0.275333
H	7.91404	-2.20856	0.240939
H	7.33634	-4.446	0.291454
H	5.85446	-3.96906	-0.622168
H	5.85269	-3.92932	1.18063
