44
  This energy is -2.6564 and Call times are: 9300
C	-0.0648421	3.32783	1.01687
C	-0.3611	1.89351	1.23162
O	-0.731366	1.47994	2.3217
H	-0.218416	3.88112	1.9688
H	-0.74287	3.74713	0.244084
H	0.989359	3.45646	0.692519
N	-0.19936	1.08989	0.177861
C	-0.407161	-0.335266	0.243496
C	0.487798	-0.991862	-0.790663
O	1.09933	-0.315019	-1.61506
H	0.141974	1.43482	-0.69184
H	-0.0962259	-0.697212	1.21558
C	-1.88743	-0.689582	-0.0182364
H	-2.20394	-0.327748	-1.0197
H	-2.063	-1.78316	0.0432793
H	-2.52443	-0.192083	0.745357
N	0.591978	-2.33518	-0.764886
C	1.42439	-3.04699	-1.70648
H	0.0926344	-2.86535	-0.0876514
H	1.37742	-4.143	-1.5227
H	2.48614	-2.72169	-1.61626
H	1.09116	-2.8519	-2.75148
C	7.30683	-2.44736	1.74262
C	6.38898	-1.28701	1.69482
O	5.75093	-0.943598	2.68041
H	7.27507	-2.8992	2.75785
H	8.3462	-2.12232	1.52627
H	6.99645	-3.21166	0.999258
N	6.29976	-0.648677	0.525652
C	5.41706	0.471171	0.312729
C	5.02546	0.492778	-1.15279
O	5.57628	-0.250242	-1.96287
H	6.79437	-0.965043	-0.278792
H	4.51046	0.325594	0.88675
C	6.10236	1.79708	0.709689
H	7.02689	1.95204	0.113635
H	5.42793	2.66556	0.563375
H	6.38733	1.75573	1.78366
N	4.05171	1.34575	-1.5273
C	3.609	1.43213	-2.89942
H	3.61503	1.93614	-0.856604
H	2.80179	2.19005	-3.00524
H	3.21523	0.44981	-3.24767
H	4.45237	1.72227	-3.56702
