44
  This energy is -3.9876 and Call times are: 9244
C	-1.3994	1.26867	2.92315
C	-1.50974	0.786538	1.52798
O	-2.59976	0.561999	1.02019
H	-2.41641	1.35296	3.36414
H	-0.914005	2.26698	2.94582
H	-0.803142	0.554118	3.52894
N	-0.362462	0.612021	0.867924
C	-0.306858	0.10736	-0.481441
C	1.0152	-0.614423	-0.662367
O	1.88984	-0.552146	0.199517
H	0.518586	0.759928	1.30809
H	-1.0946	-0.622106	-0.622758
C	-0.441662	1.25532	-1.50578
H	0.372377	1.99856	-1.36808
H	-0.414235	0.877964	-2.54855
H	-1.41254	1.77433	-1.34969
N	1.18852	-1.32796	-1.79234
C	2.41155	-2.05225	-2.04887
H	0.467658	-1.36972	-2.47622
H	2.36036	-2.57581	-3.02891
H	2.59191	-2.81231	-1.25448
H	3.2829	-1.3583	-2.06693
C	4.04569	2.54534	-1.65207
C	4.816	2.02767	-0.498898
O	5.2479	2.78054	0.363109
H	3.97248	3.65213	-1.57776
H	3.02152	2.11659	-1.65164
H	4.55607	2.28196	-2.60244
N	5.00972	0.707332	-0.459239
C	5.77601	0.0612999	0.577096
C	6.38533	-1.20135	-0.00256946
O	6.05897	-1.60362	-1.11764
H	4.68712	0.11209	-1.18963
H	6.59314	0.707493	0.87267
C	4.88533	-0.276072	1.79287
H	4.05295	-0.947491	1.49226
H	5.46675	-0.761432	2.60337
H	4.44379	0.661504	2.19577
N	7.29762	-1.85489	0.743508
C	7.93488	-3.06226	0.271976
H	7.55178	-1.51165	1.64165
H	8.65331	-3.44881	1.02806
H	8.49143	-2.86907	-0.673655
H	7.17721	-3.85391	0.0710619
