44
  This energy is -3.6983 and Call times are: 9105
C	1.55178	1.9716	2.41195
C	0.560327	1.7743	1.33063
O	-0.31118	2.60434	1.11174
H	1.33836	2.92863	2.93579
H	2.577	2.01486	1.98793
H	1.48978	1.13937	3.14451
N	0.672729	0.649414	0.620432
C	-0.243952	0.297539	-0.435238
C	-0.299564	-1.21566	-0.528511
O	0.486704	-1.91515	0.107264
H	1.36216	-0.0358622	0.837112
H	-1.2373	0.641411	-0.175154
C	0.204879	0.906896	-1.78152
H	1.21961	0.546168	-2.05397
H	-0.500392	0.654614	-2.59973
H	0.246152	2.01407	-1.68764
N	-1.24291	-1.75891	-1.32287
C	-1.37514	-3.18969	-1.46969
H	-1.87273	-1.17661	-1.82619
H	-2.2076	-3.43848	-2.16419
H	-1.58506	-3.66779	-0.485499
H	-0.436212	-3.63166	-1.87492
C	6.76242	-1.4305	2.7325
C	5.70508	-0.579165	2.14223
O	4.77253	-0.16777	2.81864
H	6.53384	-1.6089	3.8057
H	7.74828	-0.925832	2.6541
H	6.80478	-2.40771	2.20683
N	5.82877	-0.293868	0.843889
C	4.85682	0.486972	0.119904
C	4.88269	0.0466161	-1.33164
O	5.75435	-0.716889	-1.7427
H	6.57144	-0.669848	0.297145
H	3.86768	0.272	0.50462
C	5.16599	1.99585	0.233591
H	6.17648	2.21851	-0.170625
H	4.41667	2.60859	-0.308247
H	5.14958	2.29416	1.30461
N	3.91517	0.514869	-2.14445
C	3.85591	0.145983	-3.53965
H	3.21611	1.1285	-1.79251
H	2.98914	0.632749	-4.03865
H	3.74944	-0.957544	-3.64998
H	4.78561	0.457692	-4.06846
