44
  This energy is 0.1031 and Call times are: 6718
C	0.0806411	-1.53072	3.12459
C	0.616129	-0.578657	2.12561
O	1.46651	0.246396	2.42982
H	0.557694	-1.33639	4.10975
H	0.303568	-2.57398	2.8169
H	-1.01769	-1.40202	3.22555
N	0.119197	-0.672906	0.890072
C	0.510429	0.212239	-0.178579
C	-0.65237	0.328585	-1.14601
O	-1.63734	-0.399231	-1.03726
H	-0.602217	-1.32251	0.667703
H	0.694311	1.20012	0.225049
C	1.76655	-0.319171	-0.903155
H	1.57506	-1.3282	-1.32651
H	2.08596	0.360792	-1.71933
H	2.60224	-0.40379	-0.174594
N	-0.567536	1.25966	-2.11653
C	-1.6278	1.44668	-3.07937
H	0.235694	1.84197	-2.18589
H	-1.37068	2.25872	-3.79471
H	-2.57946	1.71859	-2.56781
H	-1.80228	0.511146	-3.65857
C	0.543309	-0.492369	2.06664
C	1.54214	0.382853	1.41281
O	1.41818	1.59982	1.4194
H	-0.266095	0.134198	2.50038
H	1.02112	-1.07653	2.88101
H	0.0999013	-1.1885	1.32376
N	2.57096	-0.229133	0.821729
C	3.59957	0.485856	0.108064
C	4.1487	-0.42785	-0.971363
O	3.83008	-1.61459	-1.01404
H	2.63661	-1.22236	0.789456
H	3.16075	1.34297	-0.387342
C	4.72677	0.931843	1.06501
H	5.18435	0.0520232	1.56559
H	5.51817	1.49552	0.529776
H	4.30074	1.5929	1.85104
N	4.98628	0.110303	-1.87959
C	5.55411	-0.680853	-2.94627
H	5.22911	1.0735	-1.83103
H	6.21614	-0.0585584	-3.58791
H	4.75042	-1.11204	-3.58615
H	6.15589	-1.52275	-2.53371
