44
  This energy is -0.8686 and Call times are: 7008
C	-0.726915	3.40254	0.0838309
C	-0.848854	2.05847	-0.524244
O	-1.67125	1.83272	-1.40123
H	-1.48068	4.08127	-0.371179
H	0.286875	3.81574	-0.101187
H	-0.908634	3.34554	1.17782
N	-0.0193196	1.1203	-0.0615373
C	-0.0479853	-0.2447	-0.524684
C	0.439306	-1.13665	0.601608
O	0.927812	-0.653452	1.62122
H	0.616736	1.30883	0.681267
H	-1.07083	-0.527313	-0.74045
C	0.838295	-0.421046	-1.77714
H	1.88983	-0.141282	-1.55343
H	0.813649	-1.46492	-2.15163
H	0.4683	0.246748	-2.58554
N	0.308824	-2.46878	0.445334
C	0.73943	-3.39538	1.4662
H	-0.092682	-2.84071	-0.385044
H	0.547624	-4.44472	1.15105
H	0.193803	-3.21056	2.41983
H	1.82981	-3.28248	1.66486
C	7.92231	2.89706	1.30261
C	6.77699	1.97837	1.11446
O	5.75039	2.10454	1.76759
H	7.67511	3.63432	2.09709
H	8.13413	3.44282	0.359199
H	8.82407	2.32651	1.60982
N	6.93202	1.01566	0.202571
C	5.92274	0.0206621	-0.0618174
C	6.61574	-1.23872	-0.546871
O	7.81641	-1.23473	-0.811595
H	7.7888	0.900694	-0.291964
H	5.41407	-0.226358	0.861684
C	4.91436	0.524644	-1.11747
H	5.43426	0.768213	-2.06848
H	4.12416	-0.227198	-1.31958
H	4.42516	1.45101	-0.744827
N	5.87106	-2.35542	-0.667053
C	6.44541	-3.60229	-1.11609
H	4.90195	-2.33997	-0.444198
H	5.67302	-4.40205	-1.14825
H	7.26	-3.92918	-0.429885
H	6.87777	-3.49086	-2.13677
