44
  This energy is -1.722 and Call times are: 6634
C	0.224712	-1.15688	3.27472
C	0.81597	-0.884842	1.94523
O	2.02363	-0.954532	1.76328
H	1.03662	-1.39351	3.99631
H	-0.467411	-2.02304	3.21578
H	-0.329315	-0.265252	3.63685
N	-0.0376365	-0.56099	0.97114
C	0.391462	-0.227202	-0.364158
C	-0.627144	0.723338	-0.964551
O	-1.69117	0.950104	-0.39171
H	-1.01396	-0.468372	1.14456
H	1.33548	0.300986	-0.314459
C	0.526138	-1.49639	-1.2338
H	-0.444691	-2.03298	-1.29375
H	0.869321	-1.25391	-2.26042
H	1.27048	-2.18083	-0.771381
N	-0.318518	1.31136	-2.13716
C	-1.22363	2.23454	-2.78113
H	0.54907	1.11846	-2.58342
H	-0.789844	2.61052	-3.73386
H	-1.42924	3.10806	-2.12086
H	-2.19457	1.73827	-3.00947
C	6.12612	2.74595	2.11368
C	6.3403	1.30021	1.87886
O	6.70428	0.559384	2.78169
H	6.36308	2.98501	3.17319
H	5.06741	3.01353	1.91299
H	6.7897	3.34329	1.45344
N	6.11721	0.86109	0.637976
C	6.32397	-0.510876	0.246166
C	6.67628	-0.533447	-1.22928
O	6.58497	0.483538	-1.9142
H	5.86083	1.48364	-0.0958898
H	7.17202	-0.912757	0.786476
C	5.06044	-1.35757	0.514175
H	4.19255	-0.951928	-0.0481966
H	5.21171	-2.41898	0.229483
H	4.81677	-1.32016	1.59841
N	7.09813	-1.70098	-1.75361
C	7.4607	-1.81671	-3.14693
H	7.16939	-2.51208	-1.18255
H	7.78157	-2.85482	-3.38487
H	8.29909	-1.12558	-3.39334
H	6.59654	-1.55805	-3.80074
