44
  This energy is -2.0255 and Call times are: 3104
C	-3.00752	-1.48837	-0.923169
C	-2.12791	-0.836278	0.0729219
O	-2.56278	-0.464323	1.1541
H	-4.04248	-1.54085	-0.520684
H	-2.65067	-2.51869	-1.13252
H	-3.01802	-0.902262	-1.86628
N	-0.84921	-0.679132	-0.277239
C	0.117145	-0.0238036	0.568493
C	1.17486	0.60354	-0.319898
O	1.20485	0.367679	-1.52621
H	-0.519198	-0.950082	-1.17699
H	-0.367784	0.779404	1.10917
C	0.760578	-1.02681	1.55095
H	1.26724	-1.84538	0.996619
H	1.49651	-0.531615	2.21706
H	-0.0325903	-1.47935	2.18533
N	2.06809	1.42981	0.25928
C	3.10721	2.07674	-0.507455
H	2.02518	1.61158	1.23611
H	3.73953	2.71559	0.147721
H	2.66581	2.71954	-1.30322
H	3.76218	1.32079	-0.998059
C	5.3077	-1.98689	2.59681
C	6.1364	-0.873268	2.08276
O	6.66273	-0.0725357	2.84317
H	5.25988	-1.92755	3.70589
H	5.75452	-2.9614	2.30799
H	4.27741	-1.91734	2.18847
N	6.27028	-0.796189	0.756668
C	7.01026	0.256485	0.106397
C	6.41129	0.474941	-1.27022
O	5.56756	-0.298154	-1.71984
H	5.80222	-1.43124	0.148814
H	6.88508	1.17722	0.662456
C	8.50656	-0.109168	-0.00595029
H	8.63623	-1.04807	-0.585348
H	9.08953	0.699487	-0.492521
H	8.92198	-0.27225	1.01247
N	6.83091	1.54621	-1.97188
C	6.31305	1.83767	-3.28833
H	7.51133	2.16262	-1.5896
H	6.78112	2.75892	-3.69997
H	5.2102	1.99136	-3.25141
H	6.52108	0.995864	-3.98778
