44
  This energy is -4.8347 and Call times are: 1968
C	-1.46206	-1.84891	-2.56059
C	-0.314497	-1.12819	-1.96493
O	0.805856	-1.21206	-2.44886
H	-1.1123	-2.43481	-3.43824
H	-2.23545	-1.12632	-2.89597
H	-1.90447	-2.54497	-1.81704
N	-0.573312	-0.393179	-0.880887
C	0.448392	0.330109	-0.165671
C	0.0241816	0.435585	1.28708
O	-1.10283	0.0939888	1.64046
H	-1.48227	-0.367505	-0.474686
H	1.37136	-0.235638	-0.191935
C	0.656907	1.73504	-0.772244
H	-0.287019	2.31961	-0.735933
H	1.45092	2.2968	-0.238865
H	0.959016	1.63371	-1.83752
N	0.927142	0.906765	2.1695
C	0.614939	1.03722	3.57367
H	1.8354	1.17424	1.8652
H	1.48632	1.44163	4.13436
H	0.346075	0.0479003	4.00983
H	-0.248042	1.72597	3.72211
C	8.06813	2.20675	0.352259
C	6.71645	1.8651	-0.145126
O	5.97738	2.72227	-0.609282
H	8.23533	3.30004	0.23995
H	8.83977	1.66324	-0.232476
H	8.16028	1.93751	1.42562
N	6.35766	0.582306	-0.0551054
C	5.05839	0.104725	-0.458051
C	4.7235	-1.1167	0.377139
O	5.56881	-1.63226	1.10608
H	6.95454	-0.0966811	0.362716
H	4.3154	0.860662	-0.236379
C	5.04171	-0.246472	-1.96192
H	5.79652	-1.02953	-2.18801
H	4.04277	-0.602348	-2.28749
H	5.29723	0.659801	-2.55329
N	3.47029	-1.6054	0.295712
C	3.05863	-2.76113	1.05795
H	2.79909	-1.1721	-0.29659
H	1.99306	-3.00709	0.85474
H	3.17262	-2.57235	2.15003
H	3.67976	-3.64756	0.794156
