44
  This energy is -6.8744 and Call times are: 6376
C	1.7611	-2.92536	0.673428
C	1.40902	-1.78992	-0.208597
O	2.05015	-1.55421	-1.22339
H	2.65283	-3.44681	0.262603
H	0.916993	-3.64465	0.726677
H	1.99825	-2.55784	1.69411
N	0.364826	-1.0479	0.167478
C	-0.0711031	0.114856	-0.565001
C	-0.72651	1.07168	0.412998
O	-0.960063	0.727595	1.57005
H	-0.121771	-1.22764	1.01765
H	0.792103	0.61956	-0.98067
C	-1.06033	-0.277125	-1.68438
H	-1.95099	-0.78554	-1.25743
H	-1.39267	0.608	-2.26458
H	-0.562102	-0.983649	-2.38363
N	-1.03247	2.30687	-0.0305493
C	-1.65309	3.28686	0.830052
H	-0.832035	2.56814	-0.96897
H	-1.82441	4.2394	0.281836
H	-1.00632	3.50125	1.71153
H	-2.63472	2.91596	1.20418
C	6.98527	-1.5861	2.63115
C	5.80244	-1.38369	1.76448
O	4.85967	-2.16281	1.78806
H	6.84855	-2.5137	3.2284
H	7.10355	-0.726672	3.32407
H	7.90071	-1.68952	2.01119
N	5.82847	-0.314803	0.964986
C	4.77019	-0.00949855	0.034727
C	5.37096	0.751908	-1.13186
O	6.53382	1.1493	-1.09264
H	6.62074	0.287493	0.927399
H	4.36261	-0.932605	-0.358179
C	3.66272	0.825778	0.713736
H	4.07826	1.7777	1.10771
H	2.83541	1.05558	0.0113936
H	3.24301	0.252554	1.56907
N	4.58857	0.966414	-2.2079
C	5.07588	1.67677	-3.36725
H	3.65151	0.633601	-2.22265
H	4.28418	1.74998	-4.14512
H	5.95383	1.15209	-3.80906
H	5.39316	2.70847	-3.09143
