44
  This energy is -3.3654 and Call times are: 9799
C	0.188684	0.514697	-3.43688
C	-0.315765	-0.219885	-2.25491
O	-1.22138	-1.03602	-2.3559
H	-0.389605	0.206787	-4.33502
H	1.2615	0.281871	-3.603
H	0.066678	1.6084	-3.28848
N	0.268618	0.0608421	-1.08783
C	-0.142389	-0.541156	0.156044
C	0.165392	0.433128	1.27747
O	0.824981	1.44895	1.06589
H	0.976656	0.757424	-1.01487
H	-1.21488	-0.690251	0.143553
C	0.588118	-1.88199	0.387935
H	1.68801	-1.72799	0.41136
H	0.269919	-2.3622	1.33592
H	0.354873	-2.57645	-0.448528
N	-0.316141	0.147863	2.50335
C	-0.0785355	1.01932	3.63042
H	-0.851239	-0.676781	2.65403
H	-0.555556	0.61275	4.54932
H	-0.497115	2.03368	3.4377
H	1.01389	1.12705	3.82052
C	4.43343	-0.160102	-3.39109
C	5.33371	0.205327	-2.27435
O	6.4886	0.552325	-2.47988
H	4.98703	-0.0766528	-4.35152
H	3.56037	0.525273	-3.41879
H	4.07881	-1.20545	-3.27037
N	4.81575	0.131687	-1.04606
C	5.58124	0.414533	0.142459
C	5.00099	-0.399475	1.28363
O	3.94417	-1.01261	1.14616
H	3.88653	-0.191796	-0.891913
H	6.60211	0.0839901	-0.00306602
C	5.54256	1.92158	0.47794
H	4.49626	2.25891	0.637698
H	6.13977	2.15424	1.38333
H	5.9645	2.49816	-0.374036
N	5.68857	-0.430717	2.4422
C	5.21664	-1.18312	3.58121
H	6.5439	0.0685432	2.53294
H	5.9201	-1.08369	4.43706
H	5.12442	-2.26396	3.3271
H	4.21536	-0.818161	3.90586
