44
  This energy is -6.0169 and Call times are: 5000
C	1.7713	-1.10832	-2.78331
C	0.504007	-0.844099	-2.06547
O	-0.573148	-0.895278	-2.64298
H	1.55065	-1.32101	-3.85193
H	2.28577	-1.98708	-2.34077
H	2.43707	-0.221609	-2.72343
N	0.607603	-0.548345	-0.767708
C	-0.532829	-0.225288	0.0530282
C	-0.0698921	0.699204	1.16323
O	1.12678	0.915211	1.34496
H	1.49438	-0.470344	-0.321147
H	-1.25669	0.31983	-0.539851
C	-1.16815	-1.50361	0.642513
H	-0.428986	-2.05774	1.25946
H	-2.05568	-1.26916	1.26529
H	-1.49222	-2.16871	-0.187531
N	-1.01501	1.27655	1.931
C	-0.669255	2.17506	3.00771
H	-1.97835	1.09271	1.76596
H	-1.58444	2.54557	3.51995
H	-0.104571	3.05375	2.62001
H	-0.0304509	1.65897	3.76052
C	8.38195	-1.5662	-1.57064
C	6.95592	-1.17407	-1.50895
O	6.22077	-1.30564	-2.47779
H	8.61446	-1.94693	-2.58889
H	8.59086	-2.36745	-0.830978
H	9.02945	-0.689424	-1.35829
N	6.52796	-0.672802	-0.347929
C	5.17808	-0.20741	-0.148492
C	5.20398	0.879537	0.909547
O	6.22661	1.10809	1.55274
H	7.14816	-0.533781	0.418802
H	4.81639	0.242708	-1.06457
C	4.25399	-1.36553	0.287482
H	4.61868	-1.82081	1.23287
H	3.2088	-1.02266	0.430851
H	4.25663	-2.15268	-0.497833
N	4.07322	1.58493	1.10912
C	4.00519	2.64218	2.09084
H	3.25706	1.38808	0.57602
H	2.99231	3.10167	2.1044
H	4.74872	3.43958	1.8615
H	4.22512	2.24766	3.10924
