44
  This energy is -0.6584 and Call times are: 5836
C	-2.98742	1.67222	0.625865
C	-1.95502	1.14984	-0.297398
O	-2.14282	1.12081	-1.50583
H	-3.88126	1.98019	0.040982
H	-2.59734	2.55364	1.17693
H	-3.2858	0.885706	1.35075
N	-0.823106	0.716235	0.26219
C	0.255535	0.141145	-0.502249
C	0.996957	-0.837905	0.388429
O	0.750512	-0.90635	1.59105
H	-0.701226	0.708382	1.2506
H	-0.154776	-0.423151	-1.33041
C	1.21354	1.2381	-1.01621
H	1.64289	1.81046	-0.166442
H	2.04079	0.80915	-1.61802
H	0.648004	1.94749	-1.65908
N	1.9231	-1.62944	-0.187556
C	2.67477	-2.59514	0.579647
H	2.10558	-1.56229	-1.16288
H	3.38579	-3.14826	-0.072837
H	1.99179	-3.33354	1.0588
H	3.25695	-2.09055	1.38437
C	9.24883	0.538003	2.19249
C	7.80165	0.471915	1.88839
O	6.96543	0.498928	2.78081
H	9.39062	0.591938	3.29378
H	9.69665	1.44148	1.72781
H	9.76242	-0.368343	1.80801
N	7.46989	0.379923	0.598485
C	6.10472	0.264155	0.149643
C	6.10093	-0.499861	-1.16102
O	7.15314	-0.759677	-1.74158
H	8.1632	0.317756	-0.113779
H	5.54163	-0.321175	0.865844
C	5.4643	1.6575	-0.0339586
H	6.0355	2.25456	-0.776455
H	4.40862	1.58157	-0.366072
H	5.4851	2.20159	0.935507
N	4.90867	-0.886962	-1.65567
C	4.80717	-1.62327	-2.89411
H	4.06844	-0.670969	-1.16942
H	3.74418	-1.84903	-3.13142
H	5.36304	-2.58635	-2.82516
H	5.23769	-1.03576	-3.7371
