44
  This energy is 0 and Call times are: 7337
C	3.22216	0.912372	0.947596
C	1.84463	0.474601	1.2668
O	1.5443	0.0995707	2.39178
H	3.85766	0.81594	1.85464
H	3.22051	1.97358	0.621119
H	3.64801	0.278488	0.141409
N	0.963044	0.511488	0.264888
C	-0.403599	0.0761186	0.410838
C	-0.889282	-0.418001	-0.938796
O	-0.212094	-0.251412	-1.95141
H	1.23249	0.780312	-0.655437
H	-0.440069	-0.763365	1.0939
C	-1.29809	1.22768	0.919789
H	-1.26931	2.08509	0.214059
H	-2.35029	0.901224	1.04949
H	-0.919488	1.57873	1.90456
N	-2.07903	-1.04937	-0.982352
C	-2.61955	-1.55873	-2.22113
H	-2.61058	-1.17828	-0.151745
H	-3.60543	-2.04443	-2.04977
H	-1.93141	-2.31127	-2.66992
H	-2.75781	-0.734638	-2.95794
C	104.077	1.77183	-2.25372
C	105.106	1.7092	-1.19136
O	105.786	2.68631	-0.910679
H	104.074	2.7885	-2.70343
H	103.073	1.56555	-1.82679
H	104.3	1.02826	-3.0475
N	105.245	0.536504	-0.568685
C	106.233	0.309312	0.456408
C	106.608	-1.16049	0.434269
O	105.977	-1.96142	-0.252223
H	104.712	-0.261161	-0.836291
H	107.127	0.873954	0.222415
C	105.689	0.708305	1.84551
H	104.777	0.12179	2.09057
H	106.445	0.551035	2.64158
H	105.413	1.7855	1.83615
N	107.658	-1.54915	1.18423
C	108.092	-2.92639	1.22169
H	108.159	-0.885721	1.72987
H	108.97	-3.04416	1.89457
H	108.381	-3.27489	0.203809
H	107.274	-3.58589	1.5929
