44
  This energy is -5.5951 and Call times are: 1818
C	-0.0273343	-1.64389	3.0675
C	-0.655067	-0.767834	2.0528
O	-1.83302	-0.448129	2.13415
H	-0.787717	-1.93071	3.82607
H	0.802313	-1.10827	3.57498
H	0.366324	-2.56454	2.58736
N	0.131776	-0.355755	1.05608
C	-0.346684	0.465287	-0.0281324
C	0.495612	0.167504	-1.25427
O	1.5049	-0.529696	-1.17084
H	1.07788	-0.657703	0.981386
H	-1.36695	0.188337	-0.262634
C	-0.262319	1.96383	0.335843
H	0.7858	2.25087	0.566256
H	-0.640848	2.60594	-0.485705
H	-0.87958	2.15715	1.24026
N	0.0923904	0.686188	-2.43088
C	0.827555	0.451851	-3.65186
H	-0.729226	1.24448	-2.47911
H	0.336933	0.961406	-4.51027
H	0.880701	-0.638352	-3.87526
H	1.86907	0.837361	-3.56371
C	3.58776	-3.11536	-1.17586
C	4.50791	-2.24956	-0.404579
O	5.34313	-2.72768	0.350552
H	3.79038	-4.17985	-0.927533
H	3.74301	-2.96453	-2.26485
H	2.53385	-2.88025	-0.916879
N	4.37057	-0.933155	-0.5795
C	5.16413	0.0363686	0.133836
C	4.34782	1.30788	0.269713
O	3.28194	1.43898	-0.328968
H	3.65888	-0.557853	-1.16645
H	5.36067	-0.329195	1.13401
C	6.48812	0.319709	-0.609129
H	6.287	0.704741	-1.63155
H	7.11431	1.05443	-0.0626958
H	7.06529	-0.625909	-0.704093
N	4.82906	2.27704	1.07293
C	4.11854	3.51935	1.26785
H	5.6913	2.15087	1.5522
H	4.6753	4.18598	1.96273
H	3.10806	3.33068	1.69751
H	3.98748	4.0534	0.298955
