44
  This energy is -2.7493 and Call times are: 5057
C	0.587769	-2.23097	-2.60576
C	-0.118129	-1.07002	-2.01836
O	-0.822802	-0.343688	-2.7056
H	0.373353	-2.27825	-3.69556
H	0.239325	-3.17161	-2.12981
H	1.68357	-2.12672	-2.45931
N	0.0609261	-0.865853	-0.711215
C	-0.525691	0.247127	-0.00714391
C	0.374887	0.59398	1.16341
O	1.31476	-0.135841	1.4728
H	0.670131	-1.44165	-0.173449
H	-0.551476	1.10992	-0.661022
C	-1.94694	-0.100218	0.487459
H	-1.91972	-0.97883	1.16668
H	-2.41472	0.753578	1.01919
H	-2.58623	-0.358396	-0.384895
N	0.111352	1.72912	1.84019
C	0.917631	2.14321	2.96474
H	-0.651075	2.30879	1.5723
H	0.541871	3.10146	3.3864
H	1.97808	2.28833	2.65547
H	0.895003	1.37304	3.7694
C	8.14703	1.6965	-2.24596
C	7.86892	1.13276	-0.905805
O	8.74857	1.0473	-0.0600366
H	9.22103	1.976	-2.31118
H	7.52882	2.60302	-2.41562
H	7.92311	0.944286	-3.03152
N	6.61712	0.726825	-0.680845
C	6.20461	0.117871	0.55914
C	5.04741	-0.817901	0.264542
O	4.51397	-0.830535	-0.843157
H	5.92195	0.765119	-1.39298
H	7.01574	-0.484783	0.948359
C	5.78505	1.19069	1.58787
H	4.94593	1.80242	1.19329
H	5.47843	0.735023	2.55165
H	6.64456	1.8688	1.7822
N	4.63596	-1.63445	1.25448
C	3.5457	-2.56261	1.06472
H	5.08274	-1.61258	2.14273
H	3.35861	-3.14479	1.99386
H	3.77786	-3.27861	0.243301
H	2.61024	-2.02051	0.796048
