44
  This energy is -1.0296 and Call times are: 6867
C	0.456203	-1.81202	-2.93618
C	0.43338	-1.70697	-1.45984
O	0.48379	-2.70438	-0.753417
H	0.504293	-2.88382	-3.22742
H	1.34673	-1.28866	-3.34337
H	-0.464364	-1.3638	-3.366
N	0.353152	-0.474142	-0.953788
C	0.278461	-0.214695	0.462428
C	-0.483166	1.08142	0.66631
O	-0.773119	1.79853	-0.289407
H	0.271567	0.325329	-1.54205
H	-0.291025	-1.00207	0.940297
C	1.6904	-0.116013	1.08044
H	2.27141	0.698538	0.597764
H	1.64622	0.0698146	2.17316
H	2.23221	-1.07234	0.912424
N	-0.834114	1.409	1.9255
C	-1.56527	2.62039	2.21554
H	-0.594098	0.813935	2.68534
H	-1.75915	2.71092	3.30707
H	-2.54446	2.62494	1.6841
H	-0.989498	3.51543	1.88607
C	8.41439	1.89414	-2.65523
C	7.47984	1.67962	-1.5275
O	6.76066	2.5818	-1.12099
H	8.33877	2.9485	-2.99941
H	8.15613	1.22105	-3.49962
H	9.45768	1.69604	-2.33062
N	7.47192	0.458734	-0.987348
C	6.64794	0.110379	0.143251
C	7.34333	-0.997438	0.911852
O	8.33831	-1.5544	0.451956
H	8.09254	-0.253555	-1.30253
H	6.57119	0.963542	0.805704
C	5.24595	-0.346665	-0.315842
H	5.3235	-1.22841	-0.987074
H	4.59738	-0.604464	0.54638
H	4.75896	0.476573	-0.882812
N	6.8365	-1.33848	2.11303
C	7.4347	-2.37753	2.91845
H	6.03318	-0.873545	2.47022
H	6.87389	-2.50953	3.86993
H	8.49071	-2.12334	3.16644
H	7.43246	-3.34854	2.3723
