44
  This energy is -1.7788 and Call times are: 8273
C	-0.474575	1.19416	-3.23442
C	-0.843943	0.314342	-2.10277
O	-1.89593	-0.30994	-2.10351
H	-1.28714	1.17761	-3.99293
H	0.464799	0.836797	-3.70623
H	-0.335973	2.23701	-2.87896
N	0.0283187	0.246811	-1.09431
C	-0.211304	-0.532814	0.0945207
C	0.527931	0.12171	1.24634
O	1.31677	1.04327	1.04589
H	0.861359	0.792604	-1.08966
H	-1.26741	-0.506175	0.332333
C	0.264335	-1.98976	-0.0960194
H	1.34999	-2.01827	-0.329618
H	0.072627	-2.60382	0.8077
H	-0.284007	-2.44628	-0.948816
N	0.281407	-0.3375	2.48907
C	0.934057	0.227611	3.64703
H	-0.363286	-1.08122	2.63163
H	0.599386	-0.28439	4.57605
H	0.698291	1.31249	3.74039
H	2.04001	0.120371	3.5663
C	6.71418	2.08711	-2.72735
C	6.58798	1.85037	-1.27161
O	6.9191	2.70404	-0.460422
H	7.14803	3.09613	-2.89911
H	5.71598	2.03802	-3.21101
H	7.38293	1.32622	-3.18222
N	6.0996	0.663628	-0.90349
C	5.95849	0.271327	0.476634
C	6.07851	-1.23905	0.55367
O	6.10019	-1.92204	-0.468464
H	5.87286	-0.03641	-1.5746
H	6.77487	0.689556	1.05215
C	4.60035	0.736338	1.04626
H	3.76232	0.299111	0.462675
H	4.48547	0.452333	2.1124
H	4.53118	1.84363	0.972434
N	6.16834	-1.79758	1.77678
C	6.29105	-3.22648	1.94808
H	6.15317	-1.2281	2.59197
H	6.35191	-3.48941	3.02715
H	7.20892	-3.60526	1.44277
H	5.41284	-3.75198	1.50793
