44
  This energy is -1.797 and Call times are: 7036
C	-1.20556	1.81549	-2.71354
C	-1.40667	0.923078	-1.5498
O	-2.52755	0.681739	-1.12343
H	-2.19171	2.1916	-3.06272
H	-0.718902	1.25973	-3.54242
H	-0.571789	2.68112	-2.42697
N	-0.304827	0.40688	-1.00038
C	-0.337393	-0.443891	0.163097
C	0.969541	-0.269304	0.913428
O	1.89836	0.368024	0.420661
H	0.603069	0.64519	-1.33325
H	-1.13324	-0.118501	0.821409
C	-0.537512	-1.92147	-0.239334
H	0.284354	-2.25886	-0.906222
H	-0.578178	-2.58505	0.648662
H	-1.49578	-2.02426	-0.793861
N	1.06852	-0.828717	2.13543
C	2.27171	-0.710455	2.9257
H	0.304728	-1.33718	2.51905
H	2.15655	-1.23716	3.8986
H	2.50268	0.35981	3.13176
H	3.14062	-1.15371	2.38748
C	7.60895	0.308708	-3.35015
C	8.5736	0.465644	-2.2384
O	9.74575	0.74303	-2.45181
H	8.13488	0.463081	-4.31731
H	6.79543	1.05888	-3.2597
H	7.17294	-0.712469	-3.33718
N	8.093	0.286036	-1.00587
C	8.91895	0.363214	0.173282
C	8.31185	-0.533764	1.23555
O	7.20369	-1.04108	1.07328
H	7.14583	0.0203682	-0.850471
H	9.90334	-0.0266154	-0.0539679
C	9.017	1.81746	0.683963
H	8.00834	2.21429	0.927229
H	9.66165	1.89216	1.58361
H	9.45645	2.45719	-0.112257
N	9.0331	-0.757715	2.35164
C	8.53891	-1.60197	3.41427
H	9.92953	-0.341672	2.46297
H	9.27664	-1.66152	4.24459
H	8.34866	-2.6339	3.03982
H	7.58294	-1.20112	3.82243
