44
  This energy is -6.0438 and Call times are: 6545
C	-2.98118	1.78852	-0.162646
C	-1.61503	1.57789	0.366893
O	-1.05128	2.44111	1.02526
H	-3.33376	2.80315	0.123857
H	-3.67643	1.03356	0.260931
H	-2.97888	1.70832	-1.27019
N	-1.04307	0.405256	0.0837639
C	0.298435	0.0716827	0.493226
C	0.869941	-0.90934	-0.513019
O	0.156254	-1.40934	-1.38041
H	-1.49866	-0.27117	-0.487857
H	0.913686	0.962213	0.460781
C	0.306317	-0.540648	1.91105
H	-0.316229	-1.46016	1.94229
H	1.33513	-0.78901	2.24331
H	-0.123403	0.191314	2.62933
N	2.18233	-1.20234	-0.424686
C	2.81519	-2.12087	-1.34228
H	2.74441	-0.784555	0.281429
H	3.89671	-2.22981	-1.10633
H	2.72021	-1.75647	-2.39083
H	2.33992	-3.12666	-1.28195
C	5.09332	1.73878	2.25003
C	5.28316	0.958431	1.00658
O	4.32652	0.531729	0.374764
H	4.00651	1.82406	2.4678
H	5.51698	2.75809	2.13059
H	5.59153	1.22906	3.10152
N	6.545	0.749843	0.623659
C	6.88937	-0.0274893	-0.540696
C	8.25377	-0.648683	-0.308104
O	8.93735	-0.322655	0.660465
H	7.31397	1.06851	1.17047
H	6.18034	-0.838454	-0.651302
C	6.90507	0.854808	-1.80819
H	7.63991	1.68077	-1.69943
H	7.15537	0.264976	-2.71371
H	5.89904	1.30528	-1.95426
N	8.68001	-1.57099	-1.19336
C	9.96245	-2.21992	-1.05045
H	8.11094	-1.82467	-1.96853
H	10.1303	-2.94544	-1.87669
H	10.0184	-2.77073	-0.0836236
H	10.7865	-1.47038	-1.06892
