44
  This energy is -3.5218 and Call times are: 5481
C	1.81545	-0.397692	2.94256
C	1.34708	0.419426	1.8006
O	1.51316	1.63119	1.77904
H	2.28306	0.266149	3.70186
H	2.56853	-1.13812	2.59996
H	0.95961	-0.929908	3.4088
N	0.738676	-0.237885	0.81056
C	0.190903	0.425559	-0.346309
C	-0.969702	-0.404226	-0.86207
O	-1.19312	-1.52502	-0.408611
H	0.574468	-1.21887	0.861317
H	-0.207087	1.38835	-0.0509016
C	1.26399	0.596754	-1.44376
H	1.66508	-0.39143	-1.75467
H	0.858102	1.11877	-2.33442
H	2.10703	1.20012	-1.04179
N	-1.74524	0.134799	-1.82333
C	-2.87536	-0.578506	-2.37123
H	-1.55106	1.04469	-2.17471
H	-3.38597	0.0313931	-3.14874
H	-3.61403	-0.817346	-1.57211
H	-2.54771	-1.53651	-2.836
C	7.45766	1.68903	-2.72336
C	7.18499	1.55944	-1.27422
O	7.7342	2.28777	-0.459162
H	8.20602	2.49493	-2.88564
H	6.52505	1.94996	-3.26641
H	7.86358	0.735876	-3.1231
N	6.31677	0.610529	-0.916242
C	5.98311	0.336052	0.459216
C	5.59832	-1.12727	0.569628
O	5.44886	-1.81686	-0.437264
H	5.90897	-0.00152267	-1.58777
H	6.86009	0.48643	1.07639
C	4.82394	1.23823	0.936321
H	3.92073	1.07666	0.310094
H	4.56687	1.04611	1.99817
H	5.1247	2.30428	0.839215
N	5.43641	-1.6397	1.80543
C	5.07587	-3.02349	2.00867
H	5.56571	-1.06701	2.60817
H	4.99084	-3.25243	3.09384
H	5.84446	-3.69854	1.56726
H	4.09838	-3.25016	1.52465
