44
  This energy is -0.0623 and Call times are: 2279
C	0.129378	2.90651	-1.91001
C	0.682113	1.6008	-1.48487
O	1.60783	1.07804	-2.09
H	0.671428	3.25774	-2.81483
H	0.255534	3.65701	-1.10156
H	-0.94905	2.80431	-2.15422
N	0.114617	1.03557	-0.416767
C	0.514925	-0.253497	0.0898071
C	-0.685297	-0.889789	0.765199
O	-1.7157	-0.24637	0.954902
H	-0.664971	1.45385	0.0405631
H	0.794691	-0.891839	-0.738976
C	1.6867	-0.11503	1.08631
H	1.3967	0.531209	1.94206
H	2.01326	-1.10214	1.47296
H	2.55098	0.360021	0.572793
N	-0.581359	-2.18049	1.13843
C	-1.67386	-2.8713	1.78295
H	0.259092	-2.68573	0.972749
H	-1.39392	-3.92334	2.01116
H	-2.57356	-2.88269	1.12593
H	-1.94959	-2.36676	2.73718
C	5.13224	3.07716	1.34222
C	5.10858	2.06867	0.258921
O	4.33411	2.16912	-0.682629
H	4.35981	3.85085	1.14069
H	6.1278	3.56657	1.38778
H	4.91232	2.59551	2.3183
N	5.97074	1.05564	0.372249
C	6.03578	-0.0246873	-0.580226
C	6.52857	-1.26389	0.143037
O	6.95014	-1.19436	1.29593
H	6.56649	0.965858	1.16527
H	5.03923	-0.239304	-0.945549
C	6.97768	0.328869	-1.752
H	8.00271	0.538848	-1.37882
H	7.02547	-0.48957	-2.49926
H	6.60225	1.24299	-2.26167
N	6.47846	-2.43615	-0.519764
C	6.92065	-3.66865	0.0898108
H	6.13029	-2.47301	-1.45062
H	6.7997	-4.52117	-0.614332
H	6.32957	-3.88653	1.00874
H	7.99468	-3.60138	0.378056
