44
  This energy is -1.3553 and Call times are: 9272
C	-2.843	0.509513	1.94177
C	-1.41889	0.760279	1.62524
O	-0.7979	1.66096	2.17254
H	-3.18919	1.2538	2.69147
H	-2.96753	-0.509985	2.3635
H	-3.4619	0.608254	1.02509
N	-0.862327	-0.0442065	0.716713
C	0.501708	0.103687	0.273884
C	0.596027	-0.414952	-1.14867
O	-0.347327	-1.01022	-1.66583
H	-1.39194	-0.746704	0.249937
H	0.757919	1.15558	0.251371
C	1.46845	-0.669538	1.19734
H	1.21256	-1.75043	1.21254
H	2.52333	-0.55214	0.874907
H	1.37672	-0.278825	2.2343
N	1.74249	-0.191744	-1.82086
C	1.9215	-0.64362	-3.18099
H	2.49313	0.29538	-1.38692
H	2.9297	-0.364193	-3.55874
H	1.15729	-0.186517	-3.85054
H	1.81773	-1.75104	-3.24412
C	7.53175	-3.16854	-0.152311
C	6.36723	-2.27173	0.0231458
O	5.2256	-2.71104	0.0318298
H	7.1746	-4.21352	-0.28008
H	8.18988	-3.12032	0.740602
H	8.10957	-2.87354	-1.05351
N	6.6356	-0.971849	0.166957
C	5.60566	0.0276619	0.303865
C	6.13824	1.33486	-0.252145
O	7.32191	1.45092	-0.563871
H	7.56762	-0.624465	0.116735
H	4.75135	-0.254877	-0.298586
C	5.19352	0.196179	1.78271
H	6.06739	0.496297	2.39942
H	4.39122	0.953248	1.89971
H	4.81448	-0.77436	2.17094
N	5.26777	2.35324	-0.397778
C	5.68255	3.63277	-0.924012
H	4.31305	2.23889	-0.143824
H	4.8232	4.33769	-0.966754
H	6.09439	3.51945	-1.95301
H	6.47442	4.08343	-0.282923
