44
  This energy is -3.1982 and Call times are: 5234
C	0.111992	3.18718	-1.39356
C	-0.0175403	2.27536	-0.234705
O	0.0288793	2.69864	0.912068
H	0.263926	4.22611	-1.02828
H	-0.810142	3.15461	-2.0111
H	0.983796	2.8939	-2.01569
N	-0.183465	0.980455	-0.51409
C	-0.281382	-0.0324372	0.507194
C	0.23976	-1.33596	-0.0679589
O	0.496673	-1.43759	-1.26603
H	-0.178189	0.645861	-1.45211
H	0.361305	0.233745	1.33709
C	-1.74132	-0.196153	0.983653
H	-2.39927	-0.479538	0.134631
H	-1.82778	-0.963573	1.77997
H	-2.10444	0.771716	1.3932
N	0.416719	-2.36749	0.780949
C	0.91367	-3.6448	0.325198
H	0.207148	-2.26477	1.7477
H	0.989777	-4.36202	1.17197
H	1.92381	-3.53306	-0.131308
H	0.233903	-4.07968	-0.442878
C	3.92066	2.85889	1.72639
C	4.91445	2.07836	0.955471
O	5.93992	2.59732	0.536536
H	4.26753	3.91152	1.81298
H	3.80669	2.43306	2.74542
H	2.9385	2.84563	1.20846
N	4.62571	0.79177	0.746394
C	5.47437	-0.0840322	-0.0225694
C	4.60329	-1.15632	-0.64945
O	3.42077	-1.27166	-0.333109
H	3.76776	0.393824	1.05851
H	5.92759	0.476568	-0.83062
C	6.56122	-0.722548	0.86979
H	6.09673	-1.30648	1.69278
H	7.22975	-1.38841	0.286516
H	7.18146	0.0806399	1.32425
N	5.17005	-1.96564	-1.56585
C	4.41766	-3.01102	-2.21951
H	6.12724	-1.85421	-1.81171
H	5.05912	-3.56625	-2.93887
H	3.55407	-2.58282	-2.77819
H	4.02037	-3.73545	-1.47218
