44
  This energy is -5.2575 and Call times are: 1458
C	1.37967	3.19354	0.102372
C	1.22621	1.82242	0.638654
O	1.97384	1.39522	1.50754
H	2.24393	3.68707	0.597701
H	0.463334	3.78763	0.30274
H	1.56493	3.15794	-0.991931
N	0.237036	1.09011	0.121323
C	-0.00955353	-0.275823	0.511179
C	-0.643047	-0.996135	-0.664147
O	-1.01055	-0.375072	-1.65961
H	-0.337391	1.43743	-0.614383
H	0.934517	-0.764261	0.718039
C	-0.933956	-0.338573	1.74681
H	-1.90659	0.153108	1.53168
H	-1.1202	-1.38473	2.06523
H	-0.454022	0.201486	2.592
N	-0.778257	-2.33419	-0.578322
C	-1.3647	-3.10494	-1.64986
H	-0.471149	-2.81957	0.233563
H	-1.38712	-4.18621	-1.38992
H	-0.777648	-2.98231	-2.5888
H	-2.40847	-2.77031	-1.84912
C	3.40078	1.41416	-2.80451
C	4.53377	1.27775	-1.8617
O	5.62296	1.77902	-2.10423
H	3.73079	1.99381	-3.69386
H	2.55999	1.95118	-2.31726
H	3.05629	0.412014	-3.13631
N	4.29782	0.58177	-0.747103
C	5.3132	0.327234	0.244245
C	4.97936	-0.979742	0.93846
O	3.9037	-1.54131	0.740222
H	3.41791	0.145099	-0.58298
H	6.26853	0.195941	-0.248442
C	5.38601	1.48107	1.26825
H	4.4092	1.6093	1.78153
H	6.17365	1.30342	2.0289
H	5.62352	2.42864	0.737168
N	5.90455	-1.50127	1.76794
C	5.67734	-2.744	2.46805
H	6.77068	-1.03432	1.9124
H	6.55443	-3.00528	3.10025
H	5.50517	-3.57543	1.74668
H	4.78146	-2.66652	3.12574
