44
  This energy is 0.1211 and Call times are: 5428
C	3.07817	-0.853873	-1.38147
C	2.1499	0.124547	-0.771435
O	2.54115	1.22318	-0.4022
H	4.10204	-0.421597	-1.40802
H	2.75987	-1.08789	-2.4191
H	3.09797	-1.7881	-0.781539
N	0.87771	-0.261228	-0.648555
C	-0.132925	0.564383	-0.035739
C	-1.18324	-0.346299	0.571763
O	-1.17057	-1.5561	0.352829
H	0.582762	-1.17402	-0.916285
H	0.310712	1.13023	0.773974
C	-0.773246	1.51339	-1.07237
H	-1.23771	0.933048	-1.89791
H	-1.54342	2.16412	-0.609874
H	0.0147454	2.16475	-1.50958
N	-2.11835	0.217426	1.36158
C	-3.15426	-0.570843	1.98744
H	-2.10971	1.19751	1.53023
H	-3.82507	0.0740056	2.59687
H	-2.71001	-1.34423	2.65513
H	-3.77071	-1.09104	1.219
C	1.91798	0.380006	-0.435385
C	3.10039	-0.413489	-0.0311296
O	2.97748	-1.46697	0.57837
H	0.995321	-0.129971	-0.0825599
H	1.87791	0.470832	-1.54123
H	1.96405	1.39303	0.0170804
N	4.29261	0.0854664	-0.365859
C	5.53482	-0.550725	-0.00429046
C	6.59801	0.524279	0.120473
O	6.37041	1.67931	-0.234212
H	4.37799	0.964566	-0.826021
H	5.42889	-1.0141	0.968686
C	5.94601	-1.59887	-1.06144
H	6.06508	-1.12209	-2.0577
H	6.89398	-2.10562	-0.787416
H	5.15001	-2.37106	-1.1416
N	7.78961	0.167974	0.639269
C	8.85985	1.12427	0.801301
H	7.9535	-0.770606	0.924366
H	9.75732	0.638801	1.24412
H	8.54484	1.95645	1.47176
H	9.14726	1.56282	-0.181658
