44
  This energy is -1.1994 and Call times are: 8573
C	-0.0584112	2.55778	-2.35946
C	-0.571325	1.90171	-1.13568
O	-1.35792	2.4732	-0.393339
H	-0.485969	3.58124	-2.43424
H	-0.355843	1.97751	-3.25811
H	1.04871	2.63298	-2.31801
N	-0.127082	0.666131	-0.894069
C	-0.502769	-0.0833363	0.278841
C	0.628411	-1.0375	0.612845
O	1.57045	-1.19318	-0.161775
H	0.544608	0.229832	-1.48597
H	-0.610943	0.594476	1.1164
C	-1.81491	-0.861861	0.0392191
H	-1.70117	-1.56499	-0.813253
H	-2.12216	-1.43205	0.939778
H	-2.62671	-0.14455	-0.211362
N	0.564772	-1.69618	1.78678
C	1.59816	-2.62036	2.19197
H	-0.203416	-1.55392	2.40218
H	1.36484	-3.05966	3.18685
H	2.5829	-2.10361	2.25926
H	1.69367	-3.45076	1.45546
C	5.96637	-1.21709	3.24823
C	5.42575	-0.492184	2.07631
O	4.24522	-0.177314	2.01613
H	5.14528	-1.40767	3.97304
H	6.75099	-0.60912	3.74572
H	6.39838	-2.18954	2.93077
N	6.29312	-0.209191	1.10164
C	5.90703	0.453482	-0.119158
C	6.84855	0.00287385	-1.22009
O	7.84713	-0.665748	-0.960286
H	7.24205	-0.508098	1.14681
H	4.90979	0.136427	-0.397737
C	5.96125	1.98817	0.0452259
H	6.9866	2.31498	0.320719
H	5.65278	2.50992	-0.883832
H	5.27078	2.29449	0.861164
N	6.54504	0.354352	-2.48514
C	7.37939	-0.0338594	-3.59839
H	5.7305	0.892117	-2.67596
H	6.96224	0.350367	-4.55526
H	7.45061	-1.14355	-3.66765
H	8.41005	0.371332	-3.4772
