44
  This energy is -3.0807 and Call times are: 255
C	-1.90758	-2.8693	-0.490833
C	-0.949704	-1.84453	-0.96355
O	-0.340577	-1.98464	-2.01509
H	-1.93207	-3.7115	-1.21608
H	-2.92577	-2.43373	-0.411396
H	-1.59366	-3.25805	0.500841
N	-0.791897	-0.774076	-0.181506
C	0.136154	0.28612	-0.4869
C	0.586934	0.911136	0.819893
O	0.0442749	0.611262	1.88164
H	-1.26418	-0.693573	0.691613
H	1.01346	-0.133313	-0.963395
C	-0.519178	1.34777	-1.39722
H	-1.41317	1.78592	-0.904433
H	0.189674	2.16246	-1.65085
H	-0.848397	0.86659	-2.34402
N	1.60336	1.79469	0.772583
C	2.10362	2.436	1.96617
H	2.03248	2.02149	-0.0954544
H	2.93968	3.12719	1.72026
H	2.47753	1.67798	2.69203
H	1.29814	3.02287	2.46408
C	7.39387	0.206742	-3.46878
C	6.81444	-0.353023	-2.22697
O	5.80238	-1.03961	-2.25416
H	6.76162	-0.0878884	-4.3344
H	8.42057	-0.186674	-3.62323
H	7.42797	1.31507	-3.40942
N	7.45399	-0.064571	-1.09112
C	6.98668	-0.501634	0.200832
C	7.44798	0.506405	1.23651
O	8.23836	1.39956	0.937678
H	8.25328	0.52948	-1.08063
H	5.90384	-0.49946	0.208522
C	7.52782	-1.90874	0.536189
H	8.63869	-1.90904	0.538786
H	7.16378	-2.26228	1.5226
H	7.18459	-2.62828	-0.238917
N	6.95456	0.39037	2.48514
C	7.33218	1.30721	3.53537
H	6.31289	-0.336433	2.70673
H	6.82058	1.04629	4.48795
H	7.05521	2.35154	3.26345
H	8.43235	1.27563	3.70792
