44
  This energy is -0.4286 and Call times are: 6839
C	0.13563	-1.97707	2.86103
C	0.777169	-1.12848	1.83172
O	1.93024	-0.74065	1.95984
H	0.85129	-2.14795	3.6944
H	-0.149361	-2.95771	2.4253
H	-0.769436	-1.47395	3.26205
N	0.0296657	-0.814869	0.77094
C	0.500891	0.0378165	-0.291809
C	-0.697576	0.741155	-0.900534
O	-1.84237	0.418957	-0.588508
H	-0.920695	-1.10419	0.700424
H	1.14686	0.801633	0.122845
C	1.25067	-0.781425	-1.36508
H	0.585206	-1.5583	-1.79828
H	1.6305	-0.134163	-2.18197
H	2.1188	-1.29368	-0.895711
N	-0.459697	1.73105	-1.78345
C	-1.53759	2.46048	-2.40977
H	0.473559	1.98016	-2.0202
H	-1.13865	3.23353	-3.10293
H	-2.16597	2.96835	-1.64264
H	-2.19222	1.77189	-2.99151
C	5.13822	-2.11048	-0.176646
C	5.7515	-0.783324	0.0551005
O	5.06395	0.224171	0.148092
H	4.0354	-1.99631	-0.257951
H	5.36761	-2.79116	0.669994
H	5.52441	-2.55102	-1.11997
N	7.08266	-0.753576	0.152667
C	7.82516	0.468731	0.334908
C	9.19836	0.2846	-0.283139
O	9.56999	-0.820252	-0.674157
H	7.63143	-1.57614	0.0339664
H	7.33355	1.26905	-0.204009
C	7.94868	0.820981	1.83354
H	8.46236	0.00486154	2.38501
H	8.5065	1.76756	1.9863
H	6.93198	0.94322	2.26682
N	9.98535	1.37292	-0.39362
C	11.3058	1.29512	-0.973645
H	9.66551	2.25916	-0.0752647
H	11.7941	2.29453	-0.975377
H	11.2523	0.929431	-2.02468
H	11.9482	0.591841	-0.395757
