44
  This energy is -0.8987 and Call times are: 74
C	2.45813	0.644179	2.37809
C	2.03376	0.233218	1.02083
O	2.84404	0.120088	0.111397
H	3.55484	0.826067	2.38069
H	2.22493	-0.156691	3.11088
H	1.93807	1.57935	2.67489
N	0.730264	-0.000821607	0.852029
C	0.160983	-0.366386	-0.421094
C	-1.27439	0.123575	-0.45556
O	-1.811	0.572705	0.555407
H	0.077298	0.135199	1.59162
H	0.695582	0.145376	-1.21162
C	0.216416	-1.89539	-0.631589
H	-0.340799	-2.42041	0.173338
H	-0.206414	-2.18828	-1.61442
H	1.27525	-2.2328	-0.5946
N	-1.93025	0.055578	-1.63083
C	-3.29721	0.503649	-1.76065
H	-1.47791	-0.30714	-2.43884
H	-3.65877	0.366118	-2.80352
H	-3.38314	1.58331	-1.49944
H	-3.96552	-0.0707022	-1.07902
C	5.42476	-3.33489	-0.682127
C	5.95461	-2.2704	0.199508
O	6.23058	-2.49662	1.36958
H	5.32611	-4.2776	-0.101255
H	6.11745	-3.50754	-1.53249
H	4.42573	-3.04682	-1.07203
N	6.1084	-1.06455	-0.352462
C	6.57289	0.0806477	0.390048
C	5.98429	1.32646	-0.244836
O	5.38431	1.26393	-1.3162
H	5.84081	-0.885951	-1.29499
H	6.19568	0.0261706	1.40364
C	8.11576	0.149857	0.389355
H	8.50276	0.216385	-0.649801
H	8.48615	1.01972	0.969586
H	8.52483	-0.77522	0.851128
N	6.13638	2.4939	0.410876
C	5.60524	3.73033	-0.113822
H	6.62139	2.52379	1.2786
H	5.83312	4.57771	0.569746
H	4.49949	3.66366	-0.23283
H	6.04685	3.95584	-1.11145
