44
  This energy is -5.9725 and Call times are: 9133
C	1.98115	2.83388	0.395995
C	0.955892	1.88245	0.880517
O	0.573364	1.9015	2.04229
H	2.30445	3.48518	1.23693
H	1.56144	3.47066	-0.410911
H	2.86355	2.28155	0.00947774
N	0.482681	1.01293	-0.0152371
C	-0.486547	-0.00122403	0.317403
C	-0.278962	-1.17841	-0.616782
O	0.486022	-1.09421	-1.57565
H	0.833617	0.982939	-0.946801
H	-0.30395	-0.35303	1.32513
C	-1.92477	0.546308	0.1872
H	-2.11607	0.897647	-0.849141
H	-2.68001	-0.221103	0.454083
H	-2.05153	1.41179	0.873662
N	-0.954314	-2.31396	-0.351351
C	-0.815848	-3.48749	-1.18191
H	-1.5656	-2.36415	0.431517
H	-1.45106	-4.31682	-0.799896
H	0.242527	-3.83517	-1.19727
H	-1.12156	-3.26557	-2.22997
C	3.26262	-0.691887	2.99216
C	4.00544	-1.11718	1.78448
O	4.43415	-2.25753	1.67389
H	3.20499	-1.54196	3.70624
H	2.2322	-0.382064	2.71833
H	3.78488	0.155748	3.48393
N	4.17839	-0.191986	0.837649
C	4.91722	-0.443768	-0.374496
C	5.51696	0.868259	-0.844028
O	5.20336	1.93072	-0.310608
H	3.85914	0.743422	0.959912
H	5.73897	-1.11527	-0.159016
C	4.00116	-1.04135	-1.4649
H	3.16385	-0.348145	-1.69386
H	4.56141	-1.2526	-2.39872
H	3.56718	-1.99654	-1.09664
N	6.40652	0.822734	-1.85528
C	7.03322	2.01998	-2.36519
H	6.6507	-0.046906	-2.27143
H	7.73286	1.775	-3.19448
H	7.60849	2.53483	-1.5619
H	6.26711	2.73088	-2.75099
