44
  This energy is -3.125 and Call times are: 7297
C	-3.02252	1.48115	0.885013
C	-1.56836	1.54698	0.616256
O	-0.991777	2.62086	0.512679
H	-3.43194	2.51294	0.945465
H	-3.21051	0.962887	1.84876
H	-3.53878	0.937092	0.0661305
N	-0.934117	0.378656	0.493239
C	0.471744	0.281592	0.18878
C	0.706373	-1.0213	-0.552143
O	-0.188059	-1.85902	-0.651798
H	-1.4246	-0.486885	0.539429
H	0.748951	1.08721	-0.479624
C	1.32022	0.331568	1.47829
H	1.04355	-0.500942	2.15977
H	2.40538	0.271638	1.25614
H	1.12659	1.28977	2.00811
N	1.92167	-1.21906	-1.09984
C	2.23517	-2.42629	-1.82819
H	2.63127	-0.527795	-1.01211
H	3.28287	-2.39991	-2.20081
H	1.55509	-2.54527	-2.70261
H	2.11752	-3.32113	-1.17507
C	4.28169	2.88845	-0.680725
C	5.47971	2.19638	-0.154466
O	6.48994	2.81825	0.144044
H	4.48965	3.97802	-0.754352
H	3.41928	2.73243	0.000935621
H	4.02909	2.50177	-1.69055
N	5.39195	0.870069	-0.0296114
C	6.48931	0.0544717	0.427722
C	6.3451	-1.32292	-0.191613
O	5.32724	-1.63301	-0.807661
H	4.5773	0.373478	-0.315289
H	7.42046	0.474076	0.067859
C	6.49918	-0.0432032	1.96902
H	5.54834	-0.483371	2.33807
H	7.34772	-0.657302	2.33424
H	6.59749	0.976733	2.40077
N	7.37214	-2.18355	-0.0483582
C	7.32702	-3.51418	-0.608319
H	8.18914	-1.91298	0.450009
H	8.26542	-4.06747	-0.38354
H	7.20221	-3.47076	-1.71458
H	6.4711	-4.08926	-0.186641
