44
  This energy is -3.4881 and Call times are: 2307
C	-2.80503	2.02817	-0.361974
C	-1.8384	1.03572	-0.883322
O	-2.04194	0.446179	-1.93567
H	-3.67167	2.09593	-1.05496
H	-2.32556	3.02682	-0.28744
H	-3.1695	1.71764	0.639938
N	-0.747207	0.824804	-0.143597
C	0.262182	-0.141411	-0.498736
C	0.915958	-0.63369	0.77868
O	0.677843	-0.0928952	1.8569
H	-0.615349	1.2823	0.731149
H	-0.210044	-0.994898	-0.969049
C	1.31548	0.48197	-1.44065
H	1.80768	1.35116	-0.954564
H	2.09061	-0.255971	-1.73244
H	0.813618	0.8424	-2.36508
N	1.75487	-1.68433	0.687032
C	2.41871	-2.22527	1.85017
H	1.9318	-2.1112	-0.193623
H	3.06562	-3.08541	1.56927
H	1.6733	-2.57741	2.59958
H	3.05598	-1.45058	2.33482
C	6.9395	1.04828	3.27457
C	7.42566	0.705655	1.91905
O	8.57118	0.961012	1.5741
H	7.75324	1.55206	3.84015
H	6.64086	0.127362	3.81814
H	6.07005	1.73569	3.20687
N	6.54864	0.111269	1.10669
C	6.86171	-0.243192	-0.25526
C	5.57595	-0.211097	-1.05985
O	4.48771	-0.079249	-0.503021
H	5.60753	-0.053019	1.38805
H	7.52392	0.503459	-0.675506
C	7.50986	-1.64325	-0.325899
H	6.82659	-2.41111	0.0954893
H	7.76828	-1.92192	-1.36805
H	8.44463	-1.64571	0.276209
N	5.67351	-0.323346	-2.39921
C	4.50444	-0.297847	-3.24703
H	6.56321	-0.425163	-2.83181
H	4.79177	-0.403548	-4.31638
H	3.95217	0.66214	-3.12578
H	3.81141	-1.13016	-2.98606
