44
  This energy is -1.2439 and Call times are: 7466
C	0.46467	3.39053	0.633301
C	0.896773	2.10397	0.0423823
O	1.82988	2.0516	-0.746907
H	1.09609	4.2111	0.228505
H	0.577441	3.36158	1.73747
H	-0.596304	3.5929	0.375479
N	0.213572	1.01978	0.416747
C	0.488883	-0.295566	-0.105394
C	-0.798463	-1.09747	-0.07005
O	-1.7961	-0.662165	0.50175
H	-0.569684	1.08405	1.0285
H	0.78886	-0.212602	-1.14258
C	1.5876	-0.998561	0.721568
H	1.27589	-1.09337	1.78359
H	1.81843	-2.00693	0.321028
H	2.51779	-0.39031	0.688168
N	-0.807935	-2.29263	-0.692557
C	-1.98931	-3.12329	-0.71614
H	0.0079003	-2.62608	-1.15331
H	-1.79699	-4.06471	-1.27646
H	-2.83497	-2.5896	-1.20737
H	-2.3036	-3.38913	0.319083
C	7.26769	3.277	0.102572
C	7.39461	1.83764	0.423974
O	8.43786	1.37761	0.867153
H	8.23306	3.78673	0.312575
H	6.4739	3.73975	0.725873
H	7.01795	3.40871	-0.97137
N	6.31635	1.08254	0.201339
C	6.30073	-0.341674	0.424783
C	5.29591	-0.95916	-0.529482
O	4.54545	-0.251379	-1.19848
H	5.48766	1.46399	-0.198195
H	7.2724	-0.752321	0.180169
C	5.92827	-0.666496	1.888
H	4.92693	-0.254508	2.13628
H	5.92636	-1.75969	2.07626
H	6.67232	-0.198165	2.56873
N	5.26442	-2.3033	-0.620609
C	4.34525	-2.97957	-1.50603
H	5.88233	-2.85896	-0.0742561
H	4.47333	-4.08239	-1.43821
H	4.51858	-2.67093	-2.56243
H	3.29152	-2.7319	-1.24248
