44
  This energy is -0.9873 and Call times are: 8002
C	1.36189	3.13895	0.63635
C	0.998624	1.76661	1.05571
O	1.40278	1.29952	2.1116
H	2.02727	3.59309	1.40245
H	0.449049	3.76321	0.537619
H	1.89841	3.11271	-0.33553
N	0.215671	1.07877	0.221295
C	-0.186714	-0.282795	0.471846
C	-0.415723	-0.961983	-0.865245
O	-0.413704	-0.31325	-1.90969
H	-0.0717004	1.45774	-0.653729
H	0.620388	-0.808521	0.966648
C	-1.46999	-0.329817	1.32989
H	-2.30118	0.200319	0.817924
H	-1.78228	-1.37302	1.54136
H	-1.28166	0.179758	2.30005
N	-0.611435	-2.2953	-0.863905
C	-0.831995	-3.02814	-2.08884
H	-0.605496	-2.80353	-0.00907719
H	-0.971458	-4.11158	-1.87924
H	0.0365694	-2.91329	-2.77708
H	-1.7402	-2.65256	-2.61347
C	9.15243	-2.0552	2.11126
C	8.96065	-0.796118	1.35688
O	9.6936	0.166819	1.53565
H	10.0058	-1.93613	2.81372
H	9.37522	-2.8894	1.41325
H	8.23813	-2.29522	2.69395
N	7.95127	-0.775556	0.48332
C	7.6137	0.391743	-0.292577
C	6.12747	0.346058	-0.593561
O	5.46287	-0.655317	-0.334209
H	7.33808	-1.5533	0.378572
H	7.79564	1.27954	0.300157
C	8.43029	0.438486	-1.60263
H	8.23593	-0.467118	-2.21594
H	8.18945	1.34	-2.20245
H	9.51476	0.463364	-1.35842
N	5.56708	1.44092	-1.14424
C	4.15866	1.49139	-1.46041
H	6.12039	2.24304	-1.34305
H	3.89046	2.47496	-1.90526
H	3.54453	1.34263	-0.542802
H	3.89041	0.692127	-2.18867
