30
  This energy is -0.0124754 and Call times are: 1009
C	0.13483	1.3752	-0.0983233
N	-0.814981	1.66302	0.830704
C	-1.46732	0.643134	1.43992
C	0.401575	0.0207747	-0.389412
C	-0.346856	-0.936973	0.314571
N	-1.29481	-0.681587	1.24103
H	-2.2133	0.927931	2.17097
N	0.784029	2.39822	-0.704413
H	0.545187	3.34262	-0.450132
H	1.49224	2.21762	-1.39632
N	1.29577	-0.595594	-1.27223
C	1.08902	-1.89454	-1.10226
N	0.105106	-2.15892	-0.153211
H	1.60895	-2.67968	-1.62569
H	-0.22921	-3.0594	0.150049
C	5.91593	2.42454	0.961188
C	5.47023	1.04288	0.576747
H	5.05758	3.05176	1.22811
H	6.41407	2.92215	0.121169
H	6.6061	2.39941	1.80988
C	4.54053	0.91209	-0.547951
C	5.87852	-0.0854458	1.21007
N	5.44744	-1.3482	0.82998
H	6.56415	-0.0614297	2.04818
N	4.16175	-0.410622	-0.857217
C	4.56613	-1.57976	-0.223851
H	3.51941	-0.524313	-1.63174
H	5.76555	-2.17285	1.31692
O	4.18789	-2.71717	-0.554228
O	4.08996	1.86681	-1.21283
