30
  This energy is -0.0147537 and Call times are: 2695
C	0.44728	1.15605	-0.618488
N	-0.787523	1.70277	-0.774764
C	-1.86946	1.01755	-0.331232
C	0.549431	-0.107043	0.0016184
C	-0.65109	-0.708192	0.414401
N	-1.88961	-0.190293	0.272848
H	-2.828	1.49813	-0.480551
N	1.52556	1.84498	-1.06352
H	1.38255	2.74216	-1.49735
H	2.45279	1.46695	-0.962383
N	1.64559	-0.922674	0.305017
C	1.11526	-1.98987	0.887029
N	-0.27192	-1.91358	0.979649
H	1.67065	-2.8359	1.25652
H	-0.898968	-2.59389	1.37788
C	6.97839	-1.06479	2.43497
C	6.34671	-0.575325	1.16341
H	7.31347	-0.224189	3.05345
H	7.86897	-1.66719	2.22199
H	6.2799	-1.67074	3.01992
C	7.16063	0.252417	0.269672
C	5.07039	-0.855527	0.798163
N	4.51618	-0.387252	-0.384384
H	4.41391	-1.46086	1.41109
N	6.50872	0.678821	-0.905862
C	5.20459	0.404938	-1.30058
H	7.05313	1.25234	-1.5384
H	3.56404	-0.609397	-0.634227
O	4.69574	0.817846	-2.35722
O	8.34413	0.582027	0.487062
