30
  This energy is -0.000311418 and Call times are: 4629
C	-0.495053	1.19699	0.491078
N	-1.63173	0.661399	1.0099
C	-1.84801	-0.670278	0.880671
C	0.414543	0.33922	-0.162542
C	0.0679564	-1.02051	-0.226117
N	-1.05173	-1.58028	0.278987
H	-2.76799	-1.04443	1.31158
N	-0.283536	2.52863	0.622893
H	-0.973592	3.08425	1.10112
H	0.54824	2.9549	0.249604
N	1.64477	0.570026	-0.788736
C	2.0285	-0.624411	-1.2188
N	1.11178	-1.62453	-0.905692
H	2.94165	-0.828031	-1.7531
H	1.17606	-2.60607	-1.12259
C	4.43371	0.152312	1.98617
C	5.48018	-0.111386	0.941767
H	3.58388	0.696925	1.55887
H	4.83334	0.782242	2.78921
H	4.06478	-0.779444	2.42545
C	6.07285	1.04234	0.260544
C	5.90506	-1.35257	0.595554
N	6.87442	-1.5623	-0.374602
H	5.50974	-2.24838	1.05848
N	7.04801	0.726249	-0.707874
C	7.49863	-0.535047	-1.07888
H	7.4711	1.50906	-1.19121
H	7.17406	-2.49554	-0.614693
O	8.36641	-0.737075	-1.94608
O	5.77187	2.23221	0.484546
