30
  This energy is -7.3825e-05 and Call times are: 8469
C	1.22526	0.0577728	-0.643763
N	0.798702	0.856209	-1.65797
C	-0.495699	1.25745	-1.67723
C	0.29752	-0.32036	0.349553
C	-1.01288	0.165653	0.209321
N	-1.46482	0.958681	-0.785183
H	-0.7824	1.89165	-2.50647
N	2.52004	-0.34057	-0.629069
H	3.13002	-0.0344187	-1.3692
H	2.86607	-0.931798	0.108238
N	0.415003	-1.11378	1.49652
C	-0.79776	-1.10451	2.03318
N	-1.70231	-0.345386	1.29549
H	-1.08045	-1.61742	2.93749
H	-2.67642	-0.185406	1.49579
C	14.0159	2.30083	-1.00877
C	14.7594	1.1769	-0.345871
H	12.9336	2.13382	-0.963034
H	14.2747	2.36692	-2.07182
H	14.2403	3.2615	-0.53546
C	14.562	-0.176912	-0.86993
C	15.5995	1.34465	0.70631
N	16.2717	0.284295	1.29674
H	15.791	2.31706	1.14312
N	15.2882	-1.18555	-0.203617
C	16.153	-1.03796	0.874304
H	15.1667	-2.12942	-0.549669
H	16.8916	0.434538	2.0787
O	16.7617	-1.97913	1.41252
O	13.8196	-0.466639	-1.8298
