30
  This energy is 0.000120323 and Call times are: 13831
C	-0.177901	0.992941	-0.949448
N	1.14359	1.28519	-1.0772
C	2.04287	0.596495	-0.333003
C	-0.557744	-0.0194958	-0.0433273
C	0.475455	-0.654509	0.665389
N	1.79415	-0.386104	0.559655
H	3.08117	0.868946	-0.473485
N	-1.0728	1.6842	-1.69556
H	-0.734524	2.3947	-2.32354
H	-2.05791	1.49113	-1.62354
N	-1.80422	-0.546956	0.312964
C	-1.52587	-1.47798	1.21552
N	-0.160792	-1.58616	1.46755
H	-2.25356	-2.09641	1.71429
H	0.297492	-2.21509	2.10709
C	8.88408	0.411515	1.51709
C	10.214	0.29007	0.830139
H	8.48374	-0.57681	1.77074
H	8.14642	0.885174	0.859148
H	8.96165	1.00183	2.43511
C	10.2719	-0.474446	-0.418284
C	11.3594	0.846103	1.29915
N	12.5731	0.714925	0.64003
H	11.3882	1.42335	2.21514
N	11.5488	-0.55007	-1.01202
C	12.7342	0.0102182	-0.550914
H	11.6118	-1.07393	-1.87632
H	13.4117	1.13803	1.009
O	13.8281	-0.0993716	-1.13154
O	9.29474	-1.03408	-0.955387
