30
  This energy is -0.00196658 and Call times are: 9283
C	-0.941276	-0.713624	0.723721
N	-0.212008	-0.760163	1.87005
C	1.00918	-0.17286	1.89518
C	-0.392611	-0.052781	-0.395482
C	0.882818	0.513022	-0.233716
N	1.62952	0.48278	0.890431
H	1.54719	-0.239292	2.83228
N	-2.16134	-1.30219	0.70375
H	-2.49385	-1.75742	1.53789
H	-2.72522	-1.28478	-0.129701
N	-0.874832	0.166714	-1.69092
C	0.0894461	0.84911	-2.29373
N	1.17769	1.08701	-1.45839
H	0.0615298	1.19379	-3.31411
H	2.02704	1.58015	-1.68202
C	5.04312	-1.12738	1.65349
C	6.12782	-0.407397	0.904833
H	5.27778	-2.19353	1.75177
H	4.09074	-1.0681	1.11419
H	4.90316	-0.707976	2.65437
C	6.4332	-0.855599	-0.456141
C	6.83734	0.62986	1.4163
N	7.83424	1.27404	0.697912
H	6.66372	1.01172	2.41485
N	7.46068	-0.138464	-1.10319
C	8.20016	0.925439	-0.600346
H	7.68821	-0.431586	-2.04539
H	8.34827	2.0436	1.10028
O	9.09568	1.51155	-1.23313
O	5.8568	-1.7944	-1.0418
