30
  This energy is -0.000243151 and Call times are: 6981
C	1.30582	-0.37238	0.274234
N	1.87721	0.656385	-0.406375
C	1.07713	1.55756	-1.02654
C	-0.10205	-0.457727	0.305627
C	-0.811978	0.542253	-0.379256
N	-0.272914	1.5741	-1.06253
H	1.58344	2.35617	-1.55373
N	2.10991	-1.27051	0.892425
H	3.10768	-1.15119	0.830656
H	1.71717	-2.04302	1.40417
N	-0.978286	-1.37104	0.903058
C	-2.18749	-0.929465	0.584116
N	-2.14654	0.226146	-0.191485
H	-3.11495	-1.3923	0.877966
H	-2.9266	0.748376	-0.556701
C	5.91848	2.42318	1.37495
C	5.82577	1.04166	0.793377
H	4.95278	2.93812	1.31439
H	6.63245	3.03638	0.813155
H	6.23279	2.39474	2.42264
C	5.41564	0.915158	-0.607403
C	6.09919	-0.0902936	1.48969
N	6.00358	-1.35284	0.922504
H	6.40729	-0.0695589	2.52782
N	5.34854	-0.407653	-1.0915
C	5.62338	-1.58047	-0.398301
H	5.06708	-0.5184	-2.0579
H	6.21236	-2.18022	1.4612
O	5.54194	-2.71771	-0.894251
O	5.13681	1.87347	-1.35604
