30
  This energy is 0.000463282 and Call times are: 5547
C	-1.00626	0.809143	0.501747
N	-1.52556	1.13392	-0.711895
C	-0.953622	0.62162	-1.82872
C	0.110904	-0.0512726	0.546267
C	0.60512	-0.510773	-0.685655
N	0.111145	-0.205876	-1.90434
H	-1.40628	0.912182	-2.76825
N	-1.58158	1.32383	1.61506
H	-2.37722	1.93217	1.51276
H	-1.22031	1.10221	2.5279
N	0.86322	-0.565645	1.60848
C	1.78862	-1.3173	1.0275
N	1.67971	-1.32061	-0.360589
H	2.55153	-1.87412	1.54584
H	2.26095	-1.81133	-1.02085
C	5.01214	2.38783	0.454421
C	5.66735	1.04006	0.356224
H	4.466	2.62466	-0.465924
H	5.76108	3.17784	0.582374
H	4.31311	2.43131	1.29508
C	6.63368	0.826204	-0.723986
C	5.41525	0.0144228	1.20795
N	6.0379	-1.21974	1.08964
H	4.71298	0.103711	2.02766
N	7.21209	-0.459415	-0.760185
C	6.96988	-1.52398	0.099817
H	7.88332	-0.629158	-1.49914
H	5.83367	-1.9674	1.73589
O	7.5208	-2.63459	0.00530527
O	6.95419	1.68384	-1.57151
