30
  This energy is 0.000835231 and Call times are: 218
C	0.962336	0.206215	0.974893
N	1.38871	-1.0842	1.0079
C	0.802076	-1.99028	0.188311
C	-0.0773664	0.5479	0.0845935
C	-0.597018	-0.488191	-0.708817
N	-0.19449	-1.77661	-0.697918
H	1.17939	-3.00283	0.254874
N	1.55196	1.10806	1.7961
H	2.28906	0.797753	2.40763
H	1.2586	2.07079	1.79501
N	-0.728277	1.75714	-0.185422
C	-1.61898	1.45409	-1.12014
N	-1.58363	0.108198	-1.47508
H	-2.30571	2.15027	-1.57235
H	-2.15717	-0.3623	-2.15646
C	9.48995	1.10563	-1.34763
C	8.43566	0.400951	-0.543058
H	9.4966	2.17939	-1.12762
H	9.29063	1.01049	-2.42123
H	10.4857	0.701754	-1.14125
C	7.04532	0.831197	-0.711073
C	8.69787	-0.606911	0.326645
N	7.70009	-1.23761	1.05568
H	9.70205	-0.974212	0.499271
N	6.1057	0.129765	0.0723729
C	6.35026	-0.904088	0.968423
H	5.13809	0.410897	-0.0281731
H	7.92031	-1.98526	1.69667
O	5.46587	-1.47785	1.62764
O	6.67054	1.74282	-1.47596
