30
  This energy is -0.000579864 and Call times are: 5017
C	1.04043	0.48532	0.775248
N	0.256353	0.859313	1.82092
C	-1.08103	0.65324	1.74489
C	0.424974	-0.103956	-0.349178
C	-0.970071	-0.25964	-0.297878
N	-1.77352	0.101508	0.724969
H	-1.6583	0.969312	2.60449
N	2.37665	0.693458	0.856153
H	2.75165	1.11906	1.68792
H	2.98359	0.427527	0.0986496
N	0.936503	-0.587381	-1.55893
C	-0.127561	-1.02367	-2.21946
N	-1.30887	-0.850133	-1.50319
H	-0.110139	-1.46702	-3.20125
H	-2.24215	-1.09939	-1.78859
C	8.86395	0.845882	-1.90907
C	7.96357	0.485451	-0.762414
H	8.30865	1.37951	-2.68899
H	9.27421	-0.0541071	-2.3814
H	9.69555	1.47648	-1.58039
C	6.80039	-0.359201	-1.04523
C	8.16631	0.896667	0.514583
N	7.31466	0.545931	1.55214
H	9.00533	1.52218	0.793599
N	5.99661	-0.660477	0.0736298
C	6.184	-0.251409	1.38859
H	5.18685	-1.24345	-0.0991245
H	7.48675	0.864377	2.49412
O	5.42903	-0.558475	2.32754
O	6.50117	-0.803244	-2.17211
