30
  This energy is -0.000682495 and Call times are: 12913
C	1.17854	0.402505	0.606677
N	0.756694	1.66587	0.87873
C	-0.49488	2.03328	0.51074
C	0.290897	-0.47561	-0.0501034
C	-0.977273	0.0331812	-0.375524
N	-1.42347	1.28099	-0.118523
H	-0.779793	3.04968	0.751182
N	2.43044	0.0401665	0.976559
H	3.01325	0.716164	1.44235
H	2.77185	-0.887866	0.789204
N	0.415179	-1.80693	-0.463629
C	-0.752281	-2.09138	-1.02488
N	-1.63366	-1.0138	-0.999407
H	-1.01714	-3.04083	-1.4598
H	-2.57353	-0.98074	-1.36016
C	6.2589	0.787299	-2.58173
C	6.75519	0.519352	-1.18985
H	5.16403	0.834048	-2.60382
H	6.54834	-0.0218032	-3.26214
H	6.65556	1.7293	-2.97229
C	6.30963	-0.710206	-0.529502
C	7.58901	1.34865	-0.513137
N	8.02934	1.07191	0.773088
H	7.95655	2.27323	-0.941068
N	6.81133	-0.901695	0.77446
C	7.66493	-0.0677131	1.48678
H	6.51607	-1.74571	1.24972
H	8.6497	1.70465	1.25594
O	8.0672	-0.303671	2.63935
O	5.5458	-1.55462	-1.0395
