30
  This energy is 0.000763253 and Call times are: 8997
C	-0.683423	-1.06813	0.557725
N	-1.79946	-0.356878	0.868598
C	-1.84213	0.963207	0.564623
C	0.387162	-0.398015	-0.0708869
C	0.211957	0.971476	-0.329379
N	-0.882961	1.70311	-0.0326551
H	-2.7536	1.4817	0.833753
N	-0.64574	-2.38736	0.863654
H	-1.4448	-2.80409	1.31246
H	0.166196	-2.94091	0.64631
N	1.6432	-0.83171	-0.510363
C	2.20973	0.253083	-1.0214
N	1.38805	1.37408	-0.938449
H	3.19376	0.292383	-1.45831
H	1.59078	2.30864	-1.25481
C	5.57717	1.1663	1.54347
C	6.69699	0.709566	0.653067
H	5.782	0.912806	2.58998
H	4.63932	0.663547	1.28066
H	5.425	2.24739	1.47045
C	7.02205	-0.718923	0.640706
C	7.42098	1.5422	-0.136545
N	8.45041	1.08804	-0.948242
H	7.23426	2.60835	-0.175934
N	8.08229	-1.08137	-0.215574
C	8.83709	-0.247742	-1.03222
H	8.32387	-2.06446	-0.23983
H	8.97465	1.72726	-1.52697
O	9.76174	-0.641421	-1.76429
O	6.43536	-1.58759	1.3173
