30
  This energy is -0.0119221 and Call times are: 14205
C	0.827985	0.6329	0.912639
N	1.65721	1.17181	-0.0201158
C	1.4136	0.931987	-1.3316
C	-0.255451	-0.156481	0.472858
C	-0.393119	-0.325246	-0.914798
N	0.413206	0.196653	-1.86329
H	2.10411	1.38468	-2.03182
N	1.07579	0.875599	2.22224
H	1.86668	1.44797	2.46816
H	0.480208	0.490804	2.93646
N	-1.2668	-0.836879	1.16068
C	-1.99561	-1.40168	0.207418
N	-1.51229	-1.12523	-1.06877
H	-2.86866	-2.01109	0.372218
H	-1.88945	-1.4374	-1.94905
C	6.70259	-2.09551	-1.52816
C	6.30848	-0.945759	-0.646018
H	6.46173	-1.8841	-2.57634
H	6.14802	-3.00196	-1.25947
H	7.77343	-2.30735	-1.45286
C	4.90039	-0.541308	-0.637527
C	7.17969	-0.263967	0.139534
N	6.78315	0.794848	0.943598
H	8.2337	-0.509693	0.181426
N	4.59711	0.543445	0.211012
C	5.471	1.25614	1.02338
H	3.62904	0.839741	0.232481
H	7.45023	1.28655	1.51943
O	5.12906	2.20641	1.74862
O	4.0008	-1.08323	-1.31105
