30
  This energy is 0.001584 and Call times are: 8004
C	0.945764	-0.884643	0.491902
N	0.0665697	-1.89539	0.723154
C	-1.24314	-1.70558	0.430808
C	0.45431	0.323905	-0.0449827
C	-0.92521	0.387487	-0.301698
N	-1.82116	-0.598153	-0.0827047
H	-1.89961	-2.54208	0.634204
N	2.25384	-1.07938	0.785819
H	2.53831	-1.96667	1.1671
H	2.9291	-0.350423	0.625991
N	1.08177	1.52625	-0.390688
C	0.101009	2.29481	-0.844894
N	-1.13587	1.6562	-0.813787
H	0.218439	3.30376	-1.20404
H	-2.02612	2.02777	-1.10361
C	7.67483	-0.498109	2.7287
C	7.30949	-0.310158	1.28418
H	7.88109	0.465767	3.20807
H	8.58926	-1.09456	2.82591
H	6.87314	-0.997306	3.28128
C	8.28603	0.346305	0.411343
C	6.13109	-0.712349	0.745177
N	5.82393	-0.52341	-0.594526
H	5.36501	-1.20339	1.3326
N	7.88168	0.491772	-0.931798
C	6.6819	0.0884874	-1.50577
H	8.54179	0.943053	-1.55309
H	4.94031	-0.831553	-0.972165
O	6.39406	0.251365	-2.70433
O	9.40296	0.762218	0.780187
