30
  This energy is -0.00376816 and Call times are: 3070
C	0.830659	0.049256	-1.10752
N	0.406098	-1.12839	-1.63759
C	-0.54789	-1.83582	-0.984681
C	0.257006	0.486039	0.105119
C	-0.721972	-0.343282	0.676828
N	-1.16304	-1.51598	0.174409
H	-0.849381	-2.76564	-1.45007
N	1.78443	0.752612	-1.76401
H	2.15208	0.383864	-2.62566
H	2.11949	1.62787	-1.39718
N	0.468792	1.62349	0.892655
C	-0.364385	1.48052	1.91455
N	-1.11022	0.30744	1.8353
H	-0.473413	2.17743	2.72891
H	-1.80467	-0.0236492	2.48547
C	5.82176	0.767599	2.65741
C	5.86892	0.353558	1.21457
H	6.34905	1.7165	2.80894
H	6.32435	0.0289372	3.29237
H	4.79098	0.882535	3.00599
C	7.18514	0.158207	0.601544
C	4.7658	0.15151	0.450877
N	4.84372	-0.23082	-0.880513
H	3.76294	0.278098	0.839871
N	7.15947	-0.229719	-0.754014
C	6.04403	-0.442334	-1.55536
H	8.05867	-0.370481	-1.19789
H	4.00844	-0.375086	-1.42809
O	6.0996	-0.785176	-2.74921
O	8.27396	0.310593	1.19131
