30
  This energy is -0.00274736 and Call times are: 9873
C	0.076488	-0.33364	-1.34234
N	0.957941	0.648827	-1.66771
C	1.38998	1.49055	-0.697303
C	-0.35239	-0.434916	-0.00212339
C	0.173524	0.501674	0.902992
N	1.04872	1.48659	0.609498
H	2.09064	2.25413	-1.01046
N	-0.352326	-1.17241	-2.31596
H	-0.00651668	-1.04493	-3.25284
H	-1.00472	-1.90963	-2.10669
N	-1.23141	-1.31249	0.642892
C	-1.23339	-0.911923	1.90718
N	-0.400387	0.18295	2.12171
H	-1.80526	-1.36367	2.70068
H	-0.232763	0.666127	2.98949
C	8.18215	1.76104	1.82638
C	7.66686	0.690673	0.907566
H	7.38525	2.12947	2.48259
H	8.53918	2.6265	1.25638
H	9.00271	1.39151	2.44877
C	6.56312	1.03463	0.00764738
C	8.16406	-0.571026	0.864854
N	7.66496	-1.53754	0.00369482
H	8.97882	-0.892602	1.5019
N	6.12675	-0.0141195	-0.828058
C	6.61974	-1.3121	-0.889393
H	5.36438	0.201763	-1.45861
H	8.05175	-2.4695	-0.00955503
O	6.18208	-2.18756	-1.65616
O	6.01746	2.15498	-0.0525834
