30
  This energy is 0.000428055 and Call times are: 10709
C	-1.15796	0.701749	-0.292772
N	-1.8708	-0.387076	-0.685696
C	-1.27774	-1.60537	-0.65587
C	0.17471	0.515398	0.131061
C	0.666288	-0.800295	0.113008
N	-0.0168269	-1.89931	-0.271306
H	-1.88985	-2.43784	-0.978934
N	-1.7553	1.91729	-0.324433
H	-2.70995	1.98045	-0.637879
H	-1.25403	2.74229	-0.0398275
N	1.15295	1.407	0.585997
C	2.20849	0.643842	0.835607
N	1.97025	-0.70144	0.567038
H	3.15675	0.99736	1.20517
H	2.61012	-1.47179	0.675316
C	12.7086	-1.90438	1.83907
C	12.1031	-0.829756	0.982377
H	13.784	-1.73864	1.97164
H	12.6026	-2.88731	1.3658
H	12.2376	-1.94053	2.82603
C	12.6303	-0.657544	-0.373625
C	11.0999	-0.0133891	1.39239
N	10.5621	0.970786	0.57566
H	10.6639	-0.0858334	2.38121
N	12.019	0.367434	-1.12492
C	10.9919	1.21483	-0.726885
H	12.3681	0.503887	-2.06563
H	9.81594	1.56583	0.903538
O	10.5008	2.10038	-1.44841
O	13.5484	-1.34001	-0.87163
