30
  This energy is -0.00193072 and Call times are: 6031
C	0.540698	-0.327558	1.23263
N	0.967561	0.930106	1.5227
C	0.743732	1.92202	0.626676
C	-0.119983	-0.546726	0.00551072
C	-0.286607	0.568947	-0.831468
N	0.125893	1.82751	-0.570631
H	1.10394	2.90361	0.907341
N	0.766863	-1.31554	2.13158
H	1.24449	-1.09106	2.98894
H	0.46302	-2.25687	1.94588
N	-0.668522	-1.6944	-0.578283
C	-1.15377	-1.27733	-1.73995
N	-0.95044	0.0846803	-1.94549
H	-1.65393	-1.89974	-2.46329
H	-1.22557	0.632782	-2.74454
C	4.33058	0.813302	2.617
C	4.6589	0.208619	1.28209
H	3.33553	1.27275	2.60362
H	5.03753	1.61232	2.86837
H	4.35669	0.0623757	3.41241
C	4.66483	1.09232	0.113574
C	4.94874	-1.10415	1.09889
N	5.2479	-1.63187	-0.148846
H	4.96214	-1.81245	1.91817
N	4.98047	0.462633	-1.10812
C	5.28024	-0.877842	-1.31987
H	4.99043	1.05514	-1.92925
H	5.46035	-2.61215	-0.259641
O	5.5502	-1.36361	-2.4321
O	4.41668	2.31461	0.14512
