30
  This energy is -0.00128486 and Call times are: 6698
C	-0.288919	-1.17827	-0.66876
N	-0.513867	-1.91032	0.454438
C	-0.392489	-1.31065	1.66378
C	0.0628279	0.180514	-0.526121
C	0.153967	0.676228	0.784979
N	-0.0633216	-0.02554	1.91745
H	-0.582475	-1.93879	2.52481
N	-0.411535	-1.78233	-1.87517
H	-0.665685	-2.756	-1.90637
H	-0.251512	-1.26728	-2.72489
N	0.352867	1.18245	-1.45932
C	0.61241	2.25597	-0.725092
N	0.506845	2.00698	0.640753
H	0.877749	3.22496	-1.11421
H	0.654652	2.65639	1.39641
C	4.60791	2.08143	-0.538935
C	5.42209	0.863421	-0.2088
H	4.78559	2.40185	-1.57197
H	4.89097	2.92554	0.100397
H	3.53767	1.89228	-0.412253
C	6.87884	0.960635	-0.330558
C	4.88623	-0.31628	0.193798
N	5.66695	-1.42391	0.491239
H	3.81815	-0.457486	0.304839
N	7.58379	-0.21689	-0.00626615
C	7.05756	-1.43481	0.407653
H	8.59247	-0.172023	-0.0834277
H	5.24476	-2.29079	0.788926
O	7.74542	-2.43478	0.677474
O	7.49572	1.98404	-0.68927
