30
  This energy is -0.0092574 and Call times are: 4973
C	-1.33789	0.159885	-0.321739
N	-1.68462	0.737671	0.858944
C	-0.730093	0.926504	1.80238
C	0.00704712	-0.219948	-0.514693
C	0.894154	0.0329802	0.544595
N	0.579316	0.604195	1.72644
H	-1.05996	1.39033	2.72329
N	-2.2957	-0.0266662	-1.26151
H	-3.23709	0.267593	-1.05953
H	-2.07048	-0.451671	-2.14556
N	0.671821	-0.822908	-1.58865
C	1.9301	-0.929735	-1.18343
N	2.12195	-0.427303	0.100874
H	2.73467	-1.35323	-1.76143
H	2.98121	-0.395068	0.625494
C	6.18718	2.53545	0.409279
C	6.92163	1.26149	0.104244
H	6.04787	2.65695	1.48966
H	5.18442	2.52374	-0.0331229
H	6.72602	3.40785	0.0274181
C	6.32273	0.00216041	0.553466
C	8.10324	1.21219	-0.5608
N	8.75687	0.0176492	-0.826693
H	8.60113	2.10421	-0.920619
N	7.06195	-1.15596	0.235649
C	8.27226	-1.231	-0.443376
H	6.6661	-2.03802	0.536771
H	9.63523	0.0068314	-1.32339
O	8.86834	-2.29428	-0.688383
O	5.24369	-0.091041	1.17277
