30
  This energy is -0.0138749 and Call times are: 8226
C	-1.0233	-0.0855843	0.92982
N	-0.748916	-1.36342	1.30388
C	0.285894	-2.0115	0.715651
C	-0.215037	0.513403	-0.0592645
C	0.824582	-0.270175	-0.58673
N	1.12058	-1.53951	-0.235521
H	0.460559	-3.02619	1.05022
N	-2.05872	0.557856	1.5208
H	-2.59589	0.0721192	2.22015
H	-2.28694	1.50424	1.26549
N	-0.233249	1.78154	-0.651176
C	0.772966	1.76009	-1.51486
N	1.44823	0.542435	-1.51784
H	1.05903	2.57791	-2.15525
H	2.24118	0.281534	-2.08154
C	6.89603	0.258914	2.41215
C	6.08085	-0.0369339	1.18602
H	6.60242	1.21786	2.85444
H	7.95977	0.345541	2.16245
H	6.77839	-0.523613	3.16783
C	6.13479	0.922999	0.0805764
C	5.30088	-1.13826	1.04585
N	4.55914	-1.38232	-0.100935
H	5.21481	-1.88775	1.82298
N	5.34729	0.586444	-1.03981
C	4.54185	-0.533937	-1.20586
H	5.3698	1.23635	-1.81603
H	3.98624	-2.20914	-0.181492
O	3.87245	-0.764868	-2.22786
O	6.81035	1.9719	0.0819348
