30
  This energy is 0.000262389 and Call times are: 4951
C	-0.208554	-1.3666	-0.0890831
N	-0.452436	-1.54486	1.23637
C	-0.410851	-0.470499	2.06151
C	0.0786479	-0.0646647	-0.550426
C	0.0898899	0.959207	0.411126
N	-0.148045	0.81262	1.73176
H	-0.612485	-0.668248	3.10664
N	-0.25132	-2.44369	-0.909697
H	-0.462396	-3.34567	-0.515387
H	-0.0753132	-2.3442	-1.89561
N	0.367566	0.442671	-1.82243
C	0.548298	1.74224	-1.62917
N	0.392261	2.11051	-0.295488
H	0.789575	2.4567	-2.39863
H	0.478451	3.03247	0.100958
C	9.55521	1.84138	2.01927
C	9.28484	0.982438	0.817372
H	10.2832	1.36368	2.685
H	8.64305	1.98523	2.60973
H	9.94069	2.82348	1.7292
C	8.76243	-0.367313	1.04464
C	9.4966	1.38486	-0.460964
N	9.23652	0.566081	-1.55037
H	9.88092	2.3687	-0.700594
N	8.53043	-1.12113	-0.124386
C	8.73942	-0.730837	-1.44179
H	8.16897	-2.05752	0.00949247
H	9.40224	0.88831	-2.49221
O	8.5105	-1.45413	-2.42686
O	8.52431	-0.858076	2.1667
