30
  This energy is 0.0016281 and Call times are: 1651
C	0.757283	1.03155	-0.530517
N	1.40904	0.257298	-1.43816
C	1.12599	-1.06692	-1.4946
C	-0.190065	0.420072	0.317412
C	-0.387359	-0.960984	0.153767
N	0.244002	-1.75447	-0.737265
H	1.67314	-1.63678	-2.23482
N	1.04379	2.35463	-0.478086
H	1.731	2.72749	-1.11237
H	0.578229	2.95407	0.182844
N	-1.01094	0.924184	1.33274
C	-1.68619	-0.130553	1.76916
N	-1.34861	-1.29873	1.09087
H	-2.41959	-0.11519	2.55824
H	-1.7204	-2.22326	1.23786
C	6.30969	0.749273	2.50844
C	7.00831	0.370123	1.23423
H	5.66735	-0.0665733	2.85943
H	5.65473	1.61417	2.35235
H	7.02599	0.993118	3.29883
C	6.17979	0.0158638	0.0790456
C	8.35746	0.337396	1.09409
N	8.97222	-0.0178032	-0.0978651
H	9.02874	0.587079	1.90656
N	6.8969	-0.329939	-1.08494
C	8.27604	-0.370572	-1.2519
H	6.34374	-0.578324	-1.89595
H	9.97807	-0.0346134	-0.177389
O	8.83973	-0.686756	-2.31406
O	4.93221	0.00590895	0.0750279
