30
  This energy is 0.000457905 and Call times are: 3630
C	0.843835	-0.806432	-0.746084
N	1.45355	0.217706	-1.39989
C	1.07234	1.48948	-1.12763
C	-0.164184	-0.499504	0.192029
C	-0.462013	0.860465	0.378583
N	0.125575	1.89748	-0.255068
H	1.58981	2.26641	-1.67593
N	1.22849	-2.07584	-1.02179
H	1.95475	-2.22538	-1.7028
H	0.79621	-2.85534	-0.554444
N	-0.96514	-1.30243	1.01218
C	-1.72702	-0.44387	1.67648
N	-1.46501	0.879636	1.33246
H	-2.47312	-0.711514	2.40617
H	-1.9086	1.70777	1.6958
C	6.49829	2.62166	0.948506
C	6.51624	1.17759	0.536476
H	5.56251	2.86961	1.46252
H	6.5543	3.27844	0.0727827
H	7.33415	2.857	1.61424
C	5.45581	0.708388	-0.358914
C	7.45519	0.287618	0.945458
N	7.44327	-1.04107	0.546342
H	8.26617	0.56668	1.60689
N	5.53032	-0.656123	-0.707111
C	6.48088	-1.58529	-0.301324
H	4.80691	-1.00186	-1.32562
H	8.15306	-1.68413	0.864171
O	6.48209	-2.77831	-0.651452
O	4.53552	1.42205	-0.806497
