30
  This energy is 1.8892e-05 and Call times are: 12297
C	0.154374	-0.72001	1.17337
N	1.48257	-0.955459	1.00447
C	2.09994	-0.469351	-0.0997896
C	-0.527056	0.0237486	0.187039
C	0.232683	0.468469	-0.907512
N	1.55057	0.250434	-1.10194
H	3.15734	-0.685531	-0.184753
N	-0.458079	-1.20806	2.27884
H	0.087086	-1.73123	2.94418
H	-1.44019	-1.05059	2.43237
N	-1.86113	0.42919	0.0656794
C	-1.90173	1.10239	-1.07627
N	-0.662075	1.15779	-1.70781
H	-2.78078	1.5652	-1.49322
H	-0.437171	1.60793	-2.58039
C	17.7507	1.27378	0.461156
C	19.139	0.758068	0.21238
H	17.3411	0.860587	1.39009
H	17.0702	0.966409	-0.341265
H	17.7371	2.36571	0.530018
C	19.3198	-0.691058	0.0950636
C	20.23	1.55561	0.0910026
N	21.5002	1.04709	-0.138621
H	20.1682	2.63425	0.167063
N	20.6463	-1.10916	-0.138016
C	21.7777	-0.312223	-0.26573
H	20.7941	-2.10735	-0.222599
H	22.2964	1.661	-0.225312
O	22.9213	-0.754646	-0.471726
O	18.4025	-1.5318	0.186582
