30
  This energy is -0.00334103 and Call times are: 3801
C	1.21073	0.636546	-0.219023
N	1.96898	-0.325928	0.369858
C	1.35619	-1.4168	0.890751
C	-0.187949	0.457222	-0.2626
C	-0.693287	-0.719369	0.314711
N	0.0338107	-1.69122	0.905492
H	2.00641	-2.15199	1.34764
N	1.82805	1.72501	-0.738177
H	2.83059	1.79084	-0.673493
H	1.29434	2.45466	-1.18052
N	-1.22338	1.2414	-0.783966
C	-2.32598	0.551196	-0.525558
N	-2.06423	-0.644422	0.138262
H	-3.32534	0.856498	-0.787894
H	-2.73002	-1.33686	0.441345
C	6.83279	2.27813	-1.36573
C	6.47471	1.1049	-0.499268
H	5.94863	2.88919	-1.58078
H	7.22168	1.94398	-2.33449
H	7.58612	2.91175	-0.887953
C	5.47501	0.160824	-1.00493
C	7.02272	0.871865	0.719876
N	6.66965	-0.222387	1.49628
H	7.76664	1.52865	1.1538
N	5.18434	-0.91736	-0.143706
C	5.73183	-1.17633	1.10719
H	4.49575	-1.58252	-0.473584
H	7.09159	-0.374283	2.40029
O	5.42472	-2.15279	1.81297
O	4.89694	0.25927	-2.10617
