30
  This energy is -0.00411061 and Call times are: 13045
C	-0.0885559	1.0532	0.895525
N	1.13972	0.857406	1.44422
C	1.90954	-0.158726	0.984109
C	-0.510677	0.185938	-0.134057
C	0.385404	-0.826094	-0.515961
N	1.60936	-1.04458	0.00976012
H	2.87779	-0.26996	1.45544
N	-0.854181	2.07026	1.35895
H	-0.492475	2.65248	2.09636
H	-1.76796	2.24087	0.973199
N	-1.68797	0.120146	-0.888062
C	-1.5031	-0.908437	-1.70459
N	-0.264807	-1.5186	-1.52289
H	-2.21349	-1.25572	-2.43637
H	0.106822	-2.31293	-2.01839
C	5.08185	2.28169	-0.0993467
C	5.80079	0.963153	-0.0956902
H	5.5505	2.98021	-0.802079
H	5.13041	2.7558	0.887695
H	4.03019	2.16191	-0.376697
C	7.22255	0.960123	0.257848
C	5.20982	-0.219602	-0.400266
N	5.90288	-1.42142	-0.387778
H	4.16326	-0.289708	-0.670238
N	7.83773	-0.30873	0.24226
C	7.25386	-1.53171	-0.0659324
H	8.82082	-0.33411	0.48374
H	5.44096	-2.28854	-0.618146
O	7.86299	-2.61559	-0.0584091
O	7.88296	1.97532	0.557484
