30
  This energy is 0.00192386 and Call times are: 3868
C	-1.15021	-0.770736	-0.0449004
N	-1.2214	-0.971568	1.29773
C	-0.27264	-0.422296	2.0946
C	-0.0866309	0.00450408	-0.553001
C	0.827876	0.514823	0.383093
N	0.782931	0.332368	1.71983
H	-0.376695	-0.613188	3.15515
N	-2.10099	-1.3219	-0.837102
H	-2.83343	-1.86459	-0.40976
H	-2.07577	-1.19135	-1.83471
N	0.263422	0.388531	-1.85256
C	1.36361	1.11332	-1.70038
N	1.75079	1.22277	-0.367421
H	1.91683	1.57748	-2.49992
H	2.54659	1.7175	0.00209088
C	7.32718	2.66516	-0.709676
C	6.90416	1.25752	-0.40139
H	8.21304	2.67435	-1.3551
H	7.60557	3.19884	0.206331
H	6.52772	3.22198	-1.20773
C	7.87071	0.383878	0.268625
C	5.6827	0.752286	-0.707511
N	5.32288	-0.553945	-0.408955
H	4.92116	1.34229	-1.20249
N	7.4114	-0.923732	0.529141
C	6.16693	-1.46282	0.225398
H	8.0636	-1.54487	0.992003
H	4.40785	-0.90678	-0.646829
O	5.83155	-2.63107	0.487371
O	9.02348	0.723681	0.603642
