30
  This energy is 0.000124453 and Call times are: 12715
C	-0.789355	1.13251	0.115671
N	-1.628	0.807852	-0.90381
C	-1.42293	-0.349247	-1.57902
C	0.263187	0.246559	0.428109
C	0.362235	-0.918054	-0.350921
N	-0.454334	-1.26652	-1.36776
H	-2.11929	-0.55916	-2.38093
N	-0.998599	2.2902	0.787469
H	-1.76889	2.87759	0.513218
H	-0.395094	2.55836	1.54693
N	1.27431	0.287202	1.39498
C	1.96521	-0.828101	1.20099
N	1.45732	-1.59599	0.15645
H	2.8269	-1.13188	1.77194
H	1.80478	-2.47884	-0.181838
C	10.272	0.319787	-1.04219
C	11.6647	-0.00501314	-0.583383
H	10.2411	1.29886	-1.53398
H	9.58409	0.378725	-0.190921
H	9.89663	-0.433206	-1.74171
C	12.3058	0.913946	0.36046
C	12.3588	-1.09671	-0.992473
N	13.6452	-1.36823	-0.549427
H	11.9455	-1.81648	-1.68835
N	13.6115	0.551738	0.751065
C	14.3415	-0.559462	0.346092
H	14.0737	1.17317	1.40347
H	14.1411	-2.18717	-0.868312
O	15.4944	-0.814716	0.735293
O	11.7788	1.95016	0.813348
