30
  This energy is -0.0003929 and Call times are: 6959
C	0.0677093	-0.306652	-1.34923
N	0.88049	0.733067	-1.67548
C	1.28129	1.58392	-0.699646
C	-0.32522	-0.455589	-0.00245707
C	0.16208	0.49674	0.907834
N	0.969156	1.53801	0.613619
H	1.92725	2.39392	-1.01378
N	-0.330125	-1.15431	-2.32829
H	-0.0129938	-0.99081	-3.26972
H	-0.931761	-1.93337	-2.11853
N	-1.13507	-1.39563	0.645098
C	-1.13419	-1.01636	1.91594
N	-0.364958	0.123868	2.13235
H	-1.66025	-1.51502	2.71303
H	-0.208399	0.602355	3.00478
C	7.74532	0.939975	2.5289
C	7.45037	0.289523	1.20779
H	6.82275	1.10714	3.09663
H	8.20379	1.92518	2.3855
H	8.42006	0.326671	3.13374
C	6.55805	0.992974	0.282948
C	7.96164	-0.907565	0.825026
N	7.66894	-1.48185	-0.403537
H	8.62698	-1.48071	1.45897
N	6.32233	0.328961	-0.938612
C	6.8339	-0.895357	-1.35203
H	5.70817	0.797656	-1.59324
H	8.0618	-2.37367	-0.665588
O	6.58005	-1.42105	-2.44981
O	6.02309	2.09656	0.51203
