30
  This energy is -0.00163251 and Call times are: 4391
C	-0.279265	-1.35468	-0.0766817
N	0.285437	-1.53203	-1.3005
C	0.844471	-0.467407	-1.92572
C	-0.258783	-0.0638365	0.492231
C	0.35274	0.950671	-0.262643
N	0.920821	0.80472	-1.47844
H	1.27973	-0.663943	-2.8973
N	-0.83674	-2.42201	0.544111
H	-0.817348	-3.31634	0.0821615
H	-1.26258	-2.32291	1.45061
N	-0.741854	0.439705	1.70547
C	-0.427484	1.72788	1.67984
N	0.236584	2.09231	0.511566
H	-0.648363	2.43651	2.46075
H	0.576203	3.00606	0.257956
C	6.11199	1.80949	-1.94206
C	6.68701	0.977459	-0.831873
H	5.01755	1.83216	-1.88664
H	6.36403	1.38369	-2.9201
H	6.48393	2.83781	-1.90372
C	6.28216	-0.428178	-0.750161
C	7.55618	1.45282	0.0952193
N	8.06934	0.657231	1.10939
H	7.89695	2.4809	0.0938536
N	6.85742	-1.15306	0.313932
C	7.74835	-0.688405	1.27409
H	6.59134	-2.1272	0.389252
H	8.7148	1.03403	1.78745
O	8.21585	-1.39029	2.18771
O	5.49236	-0.987631	-1.53743
