30
  This energy is 0.000909273 and Call times are: 9724
C	-0.314865	1.25069	0.505646
N	0.476171	1.1459	1.60626
C	1.19364	0.0113522	1.79307
C	-0.354825	0.168631	-0.398746
C	0.437947	-0.947699	-0.0851535
N	1.232	-1.08009	0.99842
H	1.80652	-0.0196809	2.68496
N	-1.03003	2.38678	0.323492
H	-0.955859	3.12146	1.00785
H	-1.62471	2.49459	-0.481265
N	-1.05013	-0.034156	-1.59636
C	-0.683155	-1.24524	-1.99321
N	0.216751	-1.84472	-1.11601
H	-1.02639	-1.73559	-2.88903
H	0.63849	-2.75587	-1.19686
C	5.42846	-0.402988	2.37723
C	6.3414	-0.176514	1.20647
H	4.89189	-1.35339	2.27606
H	4.66371	0.380204	2.43344
H	5.98401	-0.415424	3.3198
C	5.74245	-0.133572	-0.129872
C	7.68347	-0.0104591	1.31693
N	8.49969	0.196863	0.214371
H	8.19117	-0.0309308	2.27343
N	6.65345	0.0820587	-1.18451
C	8.02966	0.254547	-1.09583
H	6.26076	0.115485	-2.1173
H	9.49573	0.317808	0.322254
O	8.77245	0.441261	-2.07527
O	4.52565	-0.271455	-0.368531
