30
  This energy is -6.5111e-05 and Call times are: 4530
C	-0.758088	-0.579265	1.00438
N	-1.184	-1.62911	0.253053
C	-0.772718	-1.72395	-1.03485
C	0.0977247	0.370599	0.407973
C	0.446833	0.152567	-0.935011
N	0.0401709	-0.878841	-1.70508
H	-1.14119	-2.57871	-1.5877
N	-1.17204	-0.489017	2.29119
H	-1.78321	-1.20151	2.65508
H	-0.874121	0.276289	2.87296
N	0.698361	1.53662	0.896335
C	1.39271	2.00837	-0.130415
N	1.27667	1.21015	-1.26534
H	1.98864	2.90584	-0.117002
H	1.70584	1.35585	-2.16489
C	6.41706	-0.0784985	2.75864
C	6.28937	-0.171865	1.26518
H	5.45133	-0.257388	3.24521
H	6.73535	0.925691	3.06143
H	7.1404	-0.803787	3.14333
C	5.35493	0.739678	0.600122
C	6.98769	-1.04926	0.501341
N	6.84634	-1.11032	-0.877477
H	7.69441	-1.75078	0.927346
N	5.28247	0.600589	-0.801337
C	5.98664	-0.289203	-1.60382
H	4.64251	1.22118	-1.28167
H	7.37719	-1.77191	-1.42414
O	5.86975	-0.354308	-2.83995
O	4.65482	1.59118	1.18439
