30
  This energy is 0.000566179 and Call times are: 13111
C	-0.249278	1.36069	0.0736113
N	-0.879778	1.43983	-1.12817
C	-1.02152	0.314581	-1.87017
C	0.232489	0.104559	0.498349
C	0.01906	-0.980696	-0.367498
N	-0.602587	-0.932581	-1.56475
H	-1.53077	0.433656	-2.81808
N	-0.11014	2.48831	0.811492
H	-0.477312	3.35306	0.449563
H	0.351844	2.46224	1.70525
N	0.908708	-0.304592	1.65342
C	1.09721	-1.60652	1.48507
N	0.578654	-2.06953	0.278673
H	1.5925	-2.25787	2.18592
H	0.596398	-3.01223	-0.0757177
C	10.0925	-0.377708	1.69841
C	8.93292	-0.352625	0.744407
H	9.77651	-0.0813956	2.70525
H	10.8651	0.337356	1.39306
H	10.5422	-1.37367	1.75363
C	8.22482	0.916839	0.561493
C	8.50654	-1.43495	0.0460496
N	7.43069	-1.37845	-0.828142
H	8.98368	-2.40334	0.133451
N	7.14698	0.872435	-0.346792
C	6.69258	-0.222401	-1.07234
H	6.64326	1.73937	-0.488581
H	7.13236	-2.19753	-1.33653
O	5.73034	-0.185571	-1.85888
O	8.51476	1.98279	1.14138
