30
  This energy is -0.000278457 and Call times are: 11127
C	0.420002	0.304041	-1.2846
N	1.1525	-0.829076	-1.45061
C	1.20506	-1.73043	-0.439841
C	-0.256982	0.493481	-0.0614174
C	-0.118103	-0.519169	0.902052
N	0.601178	-1.6533	0.765803
H	1.8021	-2.61444	-0.624497
N	0.370674	1.20187	-2.29792
H	0.877545	1.00511	-3.14525
H	-0.162917	2.05019	-2.20555
N	-1.0744	1.52532	0.413962
C	-1.41878	1.14098	1.63567
N	-0.868136	-0.0896958	1.98337
H	-2.05198	1.6978	2.30632
H	-0.981	-0.58983	2.85039
C	5.32268	-2.65659	0.415551
C	5.68263	-1.19947	0.363968
H	6.20392	-3.28324	0.236296
H	4.59891	-2.90813	-0.368211
H	4.89414	-2.9276	1.38517
C	6.2695	-0.683186	-0.875159
C	5.49565	-0.338831	1.39608
N	5.83952	1.0029	1.31626
H	5.06722	-0.653194	2.33985
N	6.58426	0.691335	-0.857896
C	6.40217	1.59106	0.185608
H	6.99108	1.06949	-1.7046
H	5.69056	1.62353	2.09791
O	6.70554	2.79542	0.127381
O	6.49313	-1.36657	-1.89474
