30
  This energy is -8.9026e-05 and Call times are: 11105
C	-0.828722	0.835834	-0.730501
N	0.0535893	1.03466	-1.74542
C	1.26443	0.428276	-1.69051
C	-0.443808	0.00286628	0.341118
C	0.839892	-0.563253	0.272966
N	1.73631	-0.384263	-0.720296
H	1.92821	0.620278	-2.52391
N	-2.03773	1.4442	-0.79012
H	-2.24907	2.02629	-1.58391
H	-2.7125	1.3167	-0.0543658
N	-1.10286	-0.395077	1.50994
C	-0.234386	-1.18262	2.12995
N	0.959054	-1.31991	1.42601
H	-0.405591	-1.6744	3.07313
H	1.76728	-1.8612	1.68749
C	8.84803	-2.42423	-0.0548341
C	8.24041	-1.05639	0.0685604
H	8.96644	-2.70555	-1.10756
H	8.19843	-3.18245	0.397394
H	9.82766	-2.47086	0.430333
C	6.92302	-0.836145	-0.533412
C	8.84076	-0.0182711	0.703245
N	8.25209	1.23434	0.799532
H	9.81377	-0.11134	1.16977
N	6.40935	0.468446	-0.382167
C	7.00493	1.54603	0.262549
H	5.49939	0.642907	-0.790759
H	8.71873	1.99103	1.27704
O	6.48864	2.67322	0.356295
O	6.26574	-1.70381	-1.14309
