30
  This energy is -0.0111499 and Call times are: 401
C	-1.05883	0.0924714	0.888459
N	-0.473748	-0.654478	1.86202
C	0.767081	-1.15583	1.64792
C	-0.345536	0.314442	-0.30833
C	0.931734	-0.262794	-0.399991
N	1.53763	-1.00798	0.548565
H	1.18612	-1.74305	2.45515
N	-2.29923	0.591332	1.10735
H	-2.75299	0.395151	1.98439
H	-2.75891	1.14795	0.406091
N	-0.658346	1.02096	-1.47531
C	0.407258	0.871405	-2.25055
N	1.40097	0.103028	-1.64988
H	0.519441	1.2863	-3.2385
H	2.29721	-0.15029	-2.03351
C	7.49832	0.68113	1.98851
C	6.64435	0.226225	0.839934
H	7.09577	0.319612	2.94175
H	7.51452	1.77514	2.0539
H	8.52728	0.323141	1.88692
C	5.23554	0.628233	0.833621
C	7.10266	-0.532776	-0.187097
N	6.28688	-0.936921	-1.234
H	8.13191	-0.86495	-0.245316
N	4.4897	0.16869	-0.271472
C	4.93666	-0.608431	-1.33349
H	3.51307	0.435135	-0.296134
H	6.65127	-1.50145	-1.98691
O	4.2167	-0.97723	-2.27771
O	4.69042	1.32325	1.71473
