30
  This energy is -0.00105491 and Call times are: 3675
C	0.695855	1.07705	0.524205
N	0.735447	1.78095	-0.638126
C	0.159497	1.25243	-1.74528
C	0.0538317	-0.179202	0.527565
C	-0.501757	-0.609074	-0.688804
N	-0.478028	0.0669776	-1.85695
H	0.219694	1.85411	-2.64327
N	1.27302	1.60971	1.62807
H	1.71495	2.51151	1.55699
H	1.26034	1.11312	2.50336
N	-0.154547	-1.12898	1.53422
C	-0.820423	-2.10745	0.935811
N	-1.05807	-1.84582	-0.410942
H	-1.15299	-3.01441	1.41288
H	-1.54039	-2.4307	-1.07418
C	5.23935	1.76194	1.46143
C	5.97009	0.692948	0.700699
H	5.06937	2.64275	0.831608
H	5.8297	2.10368	2.31939
H	4.27218	1.40228	1.8254
C	7.28613	1.02423	0.148712
C	5.48161	-0.556381	0.497016
N	6.18245	-1.52183	-0.211197
H	4.51639	-0.868141	0.876791
N	7.91836	-0.0224895	-0.553669
C	7.43841	-1.30791	-0.774838
H	8.82957	0.184704	-0.943766
H	5.79785	-2.44451	-0.349378
O	8.05589	-2.1824	-1.40721
O	7.84721	2.13256	0.264255
