30
  This energy is -0.00127334 and Call times are: 1938
C	0.0456364	-0.947387	1.00966
N	1.28871	-1.40284	0.700809
C	1.95151	-0.845482	-0.341735
C	-0.503223	0.0907494	0.227743
C	0.290511	0.578436	-0.823528
N	1.52617	0.146642	-1.15351
H	2.93704	-1.24518	-0.544236
N	-0.612707	-1.50781	2.05267
H	-0.163349	-2.24557	2.56976
H	-1.53425	-1.19251	2.30614
N	-1.72769	0.766396	0.282923
C	-1.67065	1.64037	-0.712973
N	-0.471171	1.57059	-1.41657
H	-2.44955	2.33822	-0.971954
H	-0.190753	2.12624	-2.20854
C	5.12685	0.956639	-1.48211
C	6.28358	0.292976	-0.791484
H	5.43082	1.9141	-1.9206
H	4.32442	1.18252	-0.77045
H	4.71984	0.323551	-2.27633
C	6.93703	1.01962	0.300022
C	6.75492	-0.936012	-1.12065
N	7.82669	-1.52152	-0.462369
H	6.31936	-1.5275	-1.91658
N	8.01505	0.341653	0.905771
C	8.5149	-0.91518	0.58626
H	8.48142	0.82584	1.66305
H	8.15909	-2.43724	-0.725633
O	9.47408	-1.45144	1.1679
O	6.60261	2.15302	0.70017
