30
  This energy is 0.000192807 and Call times are: 11593
C	0.217952	0.0890517	-1.36514
N	-0.852187	0.889962	-1.61296
C	-1.64395	1.26571	-0.579146
C	0.459093	-0.318223	-0.0360991
C	-0.439397	0.14328	0.939991
N	-1.50894	0.938065	0.724165
H	-2.4817	1.90316	-0.83188
N	1.00628	-0.283737	-2.40192
H	0.777849	0.0425143	-3.32657
H	1.80579	-0.87605	-2.25077
N	1.45046	-1.12169	0.53878
C	1.15401	-1.14229	1.83129
N	0.0192208	-0.393172	2.13084
H	1.71054	-1.67057	2.58756
H	-0.404168	-0.254697	3.03426
C	12.0163	-1.72227	0.418564
C	10.8319	-0.883289	0.033019
H	11.8267	-2.25879	1.35535
H	12.8985	-1.09569	0.593409
H	12.2572	-2.45357	-0.358872
C	10.3864	0.145686	0.975945
C	10.1547	-1.02467	-1.13416
N	9.06316	-0.232838	-1.46043
H	10.4299	-1.76468	-1.87559
N	9.27044	0.897588	0.553978
C	8.5617	0.771048	-0.634817
H	8.94549	1.61481	1.1907
H	8.57563	-0.357159	-2.3352
O	7.58239	1.47384	-0.939697
O	10.9199	0.377866	2.07956
