30
  This energy is 0.000717251 and Call times are: 8138
C	0.296448	-1.30787	-0.347319
N	0.354347	-1.0743	-1.68529
C	0.132154	0.182134	-2.14228
C	0.00617109	-0.226991	0.511637
C	-0.203061	1.02335	-0.0932432
N	-0.15213	1.28515	-1.41651
H	0.190268	0.312693	-3.21542
N	0.519301	-2.56549	0.104425
H	0.721478	-3.29174	-0.56287
H	0.483446	-2.77026	1.08915
N	-0.122653	-0.135949	1.90231
C	-0.402998	1.14058	2.12765
N	-0.464049	1.8889	0.955064
H	-0.56972	1.57767	3.09817
H	-0.659204	2.8729	0.864198
C	7.75469	-0.932681	1.5921
C	6.62672	-0.597773	0.658856
H	7.44241	-0.824093	2.63713
H	8.59771	-0.247214	1.44773
H	8.10846	-1.95672	1.43904
C	6.04436	0.743918	0.743263
C	6.11934	-1.46443	-0.253502
N	5.07565	-1.12365	-1.10169
H	6.50215	-2.47098	-0.369172
N	4.99018	0.993803	-0.159476
C	4.45442	0.123337	-1.10119
H	4.57284	1.91552	-0.118433
H	4.7154	-1.78605	-1.77236
O	3.51978	0.415768	-1.86724
O	6.41739	1.63247	1.53567
