30
  This energy is 4.0232e-05 and Call times are: 9239
C	1.01614	-0.505051	-0.794619
N	1.61991	0.694323	-1.00682
C	1.0872	1.80592	-0.443432
C	-0.144423	-0.54077	0.00674519
C	-0.590359	0.684366	0.529435
N	-0.0125559	1.88893	0.336208
H	1.60712	2.73403	-0.64431
N	1.55254	-1.6132	-1.35998
H	2.38289	-1.51778	-1.92122
H	1.1288	-2.51553	-1.22156
N	-0.981611	-1.58825	0.407693
C	-1.90964	-1.00525	1.15452
N	-1.7219	0.370173	1.26233
H	-2.72849	-1.51342	1.6362
H	-2.28888	1.02918	1.7711
C	9.89176	1.84652	-1.01621
C	8.89961	0.783851	-0.639645
H	10.7987	1.76817	-0.405688
H	9.48114	2.84636	-0.834331
H	10.1744	1.77275	-2.07068
C	8.42298	0.752786	0.745368
C	8.42257	-0.1446	-1.50644
N	7.50581	-1.11412	-1.12641
H	8.73224	-0.179315	-2.54373
N	7.49384	-0.268305	1.03302
C	6.99151	-1.2289	0.163252
H	7.1509	-0.308214	1.98498
H	7.1656	-1.79419	-1.78982
O	6.16987	-2.10281	0.490482
O	8.78123	1.54668	1.63866
