30
  This energy is -0.00447353 and Call times are: 7427
C	-1.03613	-0.0315557	0.918948
N	-1.93839	0.591042	0.11497
C	-1.55705	0.969788	-1.12921
C	0.264344	-0.257514	0.420885
C	0.527254	0.185545	-0.885866
N	-0.347042	0.80565	-1.70639
H	-2.31398	1.46114	-1.72727
N	-1.42224	-0.408157	2.16171
H	-2.36606	-0.216603	2.45515
H	-0.777451	-0.871019	2.7805
N	1.39775	-0.857517	0.981474
C	2.32077	-0.776628	0.0325995
N	1.84861	-0.154253	-1.11995
H	3.33065	-1.14263	0.116008
H	2.35465	0.0246887	-1.9723
C	9.81559	-0.939546	1.42927
C	8.52385	-0.514508	0.791951
H	10.4354	-0.0692683	1.67394
H	10.4056	-1.55689	0.742122
H	9.63933	-1.51027	2.34603
C	8.59584	0.260838	-0.449037
C	7.29986	-0.807022	1.29912
N	6.12444	-0.398848	0.685441
H	7.17391	-1.37586	2.21216
N	7.34872	0.628068	-0.995405
C	6.08455	0.340456	-0.494701
H	7.37504	1.16469	-1.85375
H	5.22558	-0.628967	1.08223
O	5.02364	0.699739	-1.03443
O	9.65453	0.595378	-1.0181
