30
  This energy is 0.00013883 and Call times are: 9746
C	0.700148	1.09636	0.47626
N	-0.155529	1.35925	1.49938
C	-1.24078	0.565048	1.66769
C	0.419993	0.00290282	-0.370045
C	-0.73833	-0.738268	-0.0837324
N	-1.60536	-0.501401	0.923407
H	-1.88882	0.818556	2.49704
N	1.78346	1.89317	0.312285
H	1.92464	2.65741	0.952286
H	2.43537	1.72438	-0.435659
N	1.08441	-0.521124	-1.48486
C	0.341726	-1.55397	-1.85973
N	-0.774549	-1.73199	-1.04677
H	0.55366	-2.20032	-2.69524
H	-1.48512	-2.44147	-1.12633
C	5.66106	1.44126	-0.223867
C	6.9556	0.737148	0.0656286
H	4.87066	0.721591	-0.466253
H	5.76014	2.09809	-1.09573
H	5.33445	2.04272	0.62984
C	7.52358	-0.11018	-0.985959
C	7.62504	0.841424	1.24117
N	8.8199	0.176998	1.4772
H	7.26223	1.44993	2.06042
N	8.73883	-0.742115	-0.650551
C	9.44184	-0.650506	0.544835
H	9.14943	-1.3328	-1.36323
H	9.29932	0.270548	2.36024
O	10.5132	-1.24011	0.769373
O	7.00995	-0.290847	-2.10851
