30
  This energy is -0.00042924 and Call times are: 4607
C	0.690674	-0.0817377	1.19805
N	1.30935	-1.25708	0.908424
C	1.0649	-1.85057	-0.285246
C	-0.183255	0.471919	0.238843
C	-0.346965	-0.246283	-0.957153
N	0.252991	-1.41374	-1.27225
H	1.58311	-2.784	-0.46472
N	0.93837	0.507492	2.39254
H	1.57335	0.0588579	3.03216
H	0.495758	1.37789	2.63627
N	-0.955603	1.63907	0.229306
C	-1.56948	1.62224	-0.946174
N	-1.23785	0.503459	-1.70579
H	-2.25318	2.3758	-1.30038
H	-1.57083	0.265621	-2.62619
C	8.78209	0.952453	1.93685
C	7.91614	0.282143	0.909113
H	8.18154	1.30693	2.78248
H	9.27583	1.83569	1.51555
H	9.55031	0.271977	2.31637
C	6.83764	1.06859	0.305175
C	8.07613	-1.005	0.510883
N	7.2581	-1.59514	-0.441695
H	8.85235	-1.64262	0.915849
N	6.06243	0.380986	-0.651346
C	6.20724	-0.934855	-1.07462
H	5.31108	0.90596	-1.0818
H	7.39715	-2.55467	-0.721565
O	5.48165	-1.47581	-1.92714
O	6.58424	2.25842	0.582053
