30
  This energy is 0.000129798 and Call times are: 5964
C	-0.962748	-0.994465	0.056462
N	-0.581023	-1.47246	1.27049
C	0.462346	-0.887353	1.90758
C	-0.252796	0.0952218	-0.490268
C	0.808009	0.607203	0.274971
N	1.20944	0.154043	1.48149
H	0.724462	-1.30685	2.87057
N	-2.00625	-1.58279	-0.576255
H	-2.46976	-2.35717	-0.130073
H	-2.3127	-1.25189	-1.47598
N	-0.390551	0.804354	-1.68902
C	0.566157	1.72176	-1.64475
N	1.32251	1.64861	-0.478025
H	0.759869	2.45424	-2.41072
H	2.09963	2.23189	-0.212572
C	5.57554	2.61304	-0.74167
C	5.14792	1.1915	-0.514062
H	6.6526	2.72852	-0.57434
H	5.07812	3.28832	-0.0360085
H	5.34417	2.94115	-1.75954
C	5.39133	0.607045	0.807132
C	4.55178	0.42209	-1.45934
N	4.1687	-0.889138	-1.2169
H	4.34244	0.790426	-2.45612
N	4.96665	-0.729556	0.954854
C	4.35494	-1.53627	0.00270412
H	5.12513	-1.15355	1.86068
H	3.72667	-1.44148	-1.93653
O	4.00654	-2.71225	0.206673
O	5.92932	1.2048	1.76098
