30
  This energy is -0.000522703 and Call times are: 8865
C	0.388831	-0.519551	-1.22389
N	1.26229	0.480618	-1.5151
C	1.42126	1.49219	-0.62723
C	-0.317703	-0.460851	-0.00416656
C	-0.0584124	0.6431	0.824738
N	0.801805	1.64981	0.562573
H	2.12855	2.26206	-0.908433
N	0.233541	-1.52839	-2.11467
H	0.768986	-1.5094	-2.96703
H	-0.405422	-2.28321	-1.92792
N	-1.26511	-1.31036	0.578605
C	-1.56807	-0.72959	1.73178
N	-0.866969	0.456474	1.93273
H	-2.27349	-1.10975	2.45193
H	-0.922322	1.07563	2.72531
C	8.85137	1.1509	-1.90136
C	7.88656	0.704529	-0.840551
H	8.59366	0.713539	-2.8728
H	9.8688	0.814947	-1.67034
H	8.85871	2.24051	-2.00102
C	7.76395	-0.733484	-0.588593
C	7.12572	1.55474	-0.106251
N	6.24292	1.10972	0.867135
H	7.16629	2.6287	-0.24052
N	6.84197	-1.08545	0.418759
C	6.05293	-0.233838	1.18279
H	6.74133	-2.07483	0.609554
H	5.6876	1.76202	1.40049
O	5.25828	-0.619118	2.058
O	8.40408	-1.61825	-1.19191
