30
  This energy is -0.000352763 and Call times are: 13555
C	-0.618607	-1.2395	-0.00176685
N	0.421752	-1.90021	-0.575512
C	1.54119	-1.20761	-0.898016
C	-0.487234	0.145212	0.234205
C	0.726474	0.739885	-0.148286
N	1.7754	0.110463	-0.719039
H	2.33875	-1.78185	-1.35209
N	-1.73533	-1.93634	0.318714
H	-1.76372	-2.92353	0.123195
H	-2.52236	-1.47571	0.744516
N	-1.35181	1.09246	0.794652
C	-0.672531	2.23064	0.74977
N	0.592249	2.07585	0.188484
H	-1.03332	3.18323	1.10072
H	1.29159	2.78652	0.0454054
C	7.78726	-0.0164278	-2.23322
C	6.87977	0.174995	-1.05201
H	7.311	-0.645814	-2.99378
H	8.70913	-0.53075	-1.93824
H	8.05391	0.941063	-2.69077
C	6.43423	-1.01991	-0.33084
C	6.45152	1.38702	-0.617819
N	5.61239	1.52976	0.477776
H	6.74193	2.31031	-1.1039
N	5.58486	-0.771161	0.767059
C	5.13353	0.459196	1.22976
H	5.26481	-1.58334	1.28023
H	5.30741	2.44245	0.781647
O	4.38188	0.601287	2.20993
O	6.75404	-2.18917	-0.625989
