30
  This energy is 0.00118543 and Call times are: 5385
C	-0.114271	-0.925414	-1.02449
N	0.597654	-0.202385	-1.92918
C	1.09797	1.00164	-1.55923
C	-0.302327	-0.388467	0.26651
C	0.269704	0.869519	0.518053
N	0.980537	1.60965	-0.358928
H	1.65657	1.53537	-2.31761
N	-0.612251	-2.12831	-1.39921
H	-0.441363	-2.45317	-2.33668
H	-1.1434	-2.68718	-0.752329
N	-0.969343	-0.868467	1.39945
C	-0.801669	0.0800529	2.31109
N	-0.0589391	1.15588	1.83191
H	-1.18553	0.0489144	3.31729
H	0.20099	1.99245	2.3291
C	6.82594	1.67325	2.24367
C	6.95436	0.668963	1.13446
H	5.78187	1.77186	2.5624
H	7.14302	2.66763	1.90891
H	7.4294	1.38905	3.11102
C	6.20252	0.912308	-0.0992019
C	7.724	-0.44581	1.21098
N	7.82091	-1.35482	0.167349
H	8.30529	-0.686927	2.09247
N	6.36669	-0.0674137	-1.10014
C	7.14809	-1.21541	-1.04458
H	5.85589	0.0809934	-1.96181
H	8.40038	-2.17702	0.248251
O	7.24405	-2.03783	-1.97212
O	5.46083	1.8957	-0.297699
