30
  This energy is -1.8155e-05 and Call times are: 12319
C	-1.33435	-0.256827	0.269385
N	-1.14363	-0.558697	1.58109
C	0.111379	-0.508355	2.09026
C	-0.212153	0.0974803	-0.508748
C	1.03168	0.110296	0.143746
N	1.25144	-0.184242	1.44264
H	0.206937	-0.757877	3.13938
N	-2.59075	-0.308629	-0.234746
H	-3.34783	-0.569084	0.375655
H	-2.76435	-0.0907419	-1.20185
N	-0.072831	0.454773	-1.85478
C	1.22568	0.677214	-2.00731
N	1.94257	0.483554	-0.829492
H	1.70067	0.975277	-2.92726
H	2.93453	0.589308	-0.690101
C	18.163	2.66544	-0.761601
C	18.3919	1.29892	-0.18226
H	17.1846	2.7228	-1.25229
H	18.9095	2.89353	-1.53111
H	18.2112	3.43929	0.0104599
C	18.358	0.15407	-1.09581
C	18.6271	1.06672	1.13369
N	18.8346	-0.209184	1.63751
H	18.6654	1.86619	1.86339
N	18.5802	-1.09932	-0.488895
C	18.8226	-1.36128	0.854299
H	18.5612	-1.90486	-1.10221
H	19.0077	-0.356387	2.62073
O	19.0104	-2.49919	1.31885
O	18.1526	0.230235	-2.32404
