30
  This energy is 0.000267133 and Call times are: 5835
C	0.328499	-1.0755	-0.808967
N	0.865278	-0.324756	-1.80713
C	0.885976	1.02396	-1.67528
C	-0.186233	-0.414886	0.326378
C	-0.101793	0.98719	0.335078
N	0.424832	1.75827	-0.639745
H	1.32435	1.5734	-2.49868
N	0.310197	-2.42322	-0.945579
H	0.694394	-2.83111	-1.78201
H	-0.0803227	-3.00626	-0.224148
N	-0.790297	-0.885325	1.49798
C	-1.06258	0.209754	2.19479
N	-0.667296	1.37235	1.53845
H	-1.53578	0.228219	3.16252
H	-0.764661	2.32206	1.85965
C	5.5407	2.76047	0.383356
C	5.80736	1.28438	0.309382
H	4.49003	2.95589	0.626895
H	5.72906	3.24038	-0.583904
H	6.16865	3.24195	1.13907
C	5.04064	0.49841	-0.660559
C	6.71427	0.641325	1.08715
N	6.93681	-0.724939	0.99415
H	7.31454	1.16061	1.8241
N	5.33868	-0.879815	-0.679373
C	6.26172	-1.55973	0.106302
H	4.82015	-1.44233	-1.34278
H	7.61721	-1.18059	1.58388
O	6.47113	-2.78312	0.0331057
O	4.17949	0.965974	-1.43281
