30
  This energy is -0.00104539 and Call times are: 13133
C	-0.285997	1.33313	-0.244976
N	0.874351	1.59332	-0.903736
C	1.77557	0.594015	-1.06514
C	-0.50279	0.0278252	0.244467
C	0.51299	-0.913209	0.00852604
N	1.6738	-0.684356	-0.641332
H	2.68188	0.85521	-1.59657
N	-1.18356	2.3354	-0.0862718
H	-0.966464	3.24452	-0.460371
H	-2.05166	2.17429	0.396791
N	-1.56561	-0.55132	0.947219
C	-1.19641	-1.81204	1.12929
N	0.0537714	-2.08677	0.581344
H	-1.77784	-2.56168	1.63992
H	0.54799	-2.96443	0.588936
C	4.75332	-1.66246	1.3574
C	5.74046	-0.909829	0.512108
H	3.7939	-1.13427	1.40131
H	5.10832	-1.74667	2.39097
H	4.57889	-2.66928	0.966069
C	6.07885	0.458834	0.910418
C	6.3333	-1.42428	-0.5946
N	7.24182	-0.701895	-1.35459
H	6.12895	-2.42841	-0.945365
N	7.01063	1.10932	0.0753525
C	7.63005	0.603547	-1.06135
H	7.25912	2.05674	0.332345
H	7.66972	-1.10665	-2.174
O	8.44581	1.2397	-1.7511
O	5.60629	1.04783	1.90357
