30
  This energy is -0.00213689 and Call times are: 1557
C	0.951293	0.936125	0.371138
N	1.91796	0.0261947	0.663803
C	1.64595	-1.29259	0.509974
C	-0.299193	0.465896	-0.0822195
C	-0.448027	-0.92613	-0.196817
N	0.49226	-1.85245	0.0859897
H	2.45033	-1.97377	0.756955
N	1.22817	2.25314	0.526569
H	2.14157	2.52126	0.854299
H	0.533537	2.95099	0.31826
N	-1.47477	1.12571	-0.45841
C	-2.31099	0.15172	-0.791513
N	-1.74203	-1.11144	-0.652279
H	-3.32258	0.292181	-1.13462
H	-2.17185	-2.00259	-0.841218
C	8.20774	2.44743	0.0325052
C	7.4532	1.15912	0.19491
H	7.71014	3.10297	-0.691416
H	9.21541	2.26341	-0.357519
H	8.29465	2.98148	0.983543
C	7.25423	0.328115	-0.995147
C	6.94786	0.724205	1.3766
N	6.25466	-0.471947	1.493
H	7.05831	1.28829	2.29458
N	6.53875	-0.866932	-0.774592
C	6.01242	-1.33248	0.424495
H	6.38971	-1.45695	-1.58396
H	5.88821	-0.77413	2.38336
O	5.38965	-2.40209	0.542795
O	7.66677	0.612071	-2.13784
