30
  This energy is 1.7668e-05 and Call times are: 11791
C	0.211914	1.36898	-0.00256037
N	0.654434	1.42693	-1.28665
C	0.722141	0.282579	-2.00964
C	-0.159456	0.114052	0.524311
C	-0.0405743	-0.992326	-0.332903
N	0.3949	-0.965484	-1.61033
H	1.08109	0.385227	-3.02584
N	0.146093	2.51565	0.715904
H	0.426554	3.37832	0.279174
H	-0.177265	2.50551	1.66892
N	-0.643078	-0.276434	1.7783
C	-0.810914	-1.58806	1.67651
N	-0.461645	-2.07512	0.41975
H	-1.17491	-2.23015	2.46135
H	-0.500245	-3.02903	0.0985412
C	11.0782	1.18705	-1.46047
C	12.2912	0.69561	-0.72384
H	10.2284	1.30551	-0.778465
H	10.7652	0.464786	-2.22318
H	11.2697	2.14757	-1.9483
C	12.1907	-0.583822	-0.0171871
C	13.4691	1.36738	-0.676438
N	14.5719	0.88562	0.0139078
H	13.6124	2.31779	-1.17569
N	13.3635	-0.987717	0.653646
C	14.5795	-0.317563	0.716181
H	13.3164	-1.86972	1.14889
H	15.4375	1.40387	0.0343954
O	15.5753	-0.73787	1.33072
O	11.1686	-1.29835	0.0181025
