30
  This energy is -0.00532527 and Call times are: 5569
C	0.077156	1.33598	-0.358095
N	0.425145	1.10134	-1.65112
C	0.555333	-0.179883	-2.07346
C	-0.134396	0.23026	0.492193
C	0.0339485	-1.04432	-0.073595
N	0.378411	-1.30783	-1.35191
H	0.833896	-0.310131	-3.11148
N	-0.051687	2.61843	0.0591417
H	0.113753	3.36162	-0.599558
H	-0.308119	2.82467	1.01025
N	-0.492879	0.133415	1.84163
C	-0.538815	-1.17023	2.08097
N	-0.228607	-1.93078	0.956693
H	-0.785395	-1.61912	3.02884
H	-0.195651	-2.93494	0.884758
C	5.06611	2.7228	-0.583212
C	5.04204	1.24487	-0.317589
H	5.81768	2.97124	-1.34137
H	5.34256	3.27767	0.320714
H	4.09179	3.08211	-0.927961
C	6.27795	0.614034	0.152491
C	3.94482	0.465138	-0.488071
N	3.95575	-0.898692	-0.233719
H	2.99943	0.865819	-0.832675
N	6.18806	-0.774342	0.38274
C	5.0772	-1.59261	0.215423
H	7.03116	-1.23101	0.708392
H	3.1264	-1.45768	-0.368117
O	5.0732	-2.81554	0.439773
O	7.35303	1.21565	0.349532
