30
  This energy is 5.167e-06 and Call times are: 12803
C	-0.271951	0.338335	1.31552
N	-1.33868	1.12959	1.02559
C	-1.7073	1.28555	-0.269264
C	0.408415	-0.289202	0.250788
C	-0.0779893	-0.0426841	-1.04368
N	-1.13311	0.73689	-1.36173
H	-2.56268	1.92571	-0.444111
N	0.0924841	0.185685	2.61138
H	-0.43648	0.662177	3.32324
H	0.877704	-0.393479	2.85817
N	1.51596	-1.14406	0.2129
C	1.69084	-1.40514	-1.07556
N	0.754002	-0.764495	-1.88215
H	2.46242	-2.03801	-1.48165
H	0.67805	-0.804802	-2.88574
C	9.74186	-0.411531	1.17229
C	11.0047	-0.0671082	0.436103
H	9.85199	-0.222826	2.24638
H	9.50673	-1.47693	1.06732
H	8.89267	0.170578	0.80179
C	12.2331	-0.767049	0.8202
C	11.071	0.851838	-0.559922
N	12.2547	1.14735	-1.22056
H	10.2021	1.40552	-0.8937
N	13.3822	-0.397756	0.0909327
C	13.4743	0.539047	-0.931563
H	14.243	-0.869491	0.340009
H	12.2786	1.83515	-1.9586
O	14.528	0.813224	-1.53181
O	12.3084	-1.63146	1.71669
