30
  This energy is 5.1389e-05 and Call times are: 12737
C	-0.166259	1.1366	-0.77429
N	0.748226	0.783848	-1.71628
C	1.40764	-0.392642	-1.58253
C	-0.390306	0.258451	0.306921
C	0.360774	-0.928395	0.324203
N	1.2743	-1.30491	-0.59552
H	2.12436	-0.62462	-2.36004
N	-0.822704	2.3136	-0.912555
H	-0.615188	2.89399	-1.70859
H	-1.50545	2.60271	-0.231981
N	-1.24236	0.325522	1.41524
C	-1.00825	-0.796002	2.08327
N	-0.046454	-1.59304	1.46816
H	-1.49269	-1.08445	3.00135
H	0.301209	-2.48586	1.77897
C	15.2951	-0.69038	-2.48166
C	14.8085	-0.456162	-1.08027
H	15.7817	0.206768	-2.88128
H	14.4583	-0.914311	-3.15331
H	16.0068	-1.52042	-2.5234
C	13.8459	0.626538	-0.862244
C	15.2091	-1.18776	-0.0101
N	14.7403	-0.945401	1.273
H	15.9178	-2.00189	-0.0996493
N	13.4297	0.793516	0.474745
C	13.8254	0.0577709	1.58543
H	12.764	1.53657	0.648302
H	15.0532	-1.50362	2.05324
O	13.4132	0.264124	2.74017
O	13.3984	1.37118	-1.75766
