30
  This energy is 0.000453953 and Call times are: 6275
C	0.606145	-1.24114	0.105833
N	1.3219	-1.13181	-1.04474
C	1.20494	-0.00291701	-1.78553
C	-0.231414	-0.169523	0.480672
C	-0.259451	0.941855	-0.377859
N	0.438978	1.07855	-1.52489
H	1.79646	0.0321009	-2.69158
N	0.726551	-2.37156	0.842728
H	1.34238	-3.09881	0.517994
H	0.209861	-2.4825	1.69925
N	-1.07789	0.026508	1.5779
C	-1.60261	1.22878	1.38273
N	-1.14232	1.8289	0.213688
H	-2.30809	1.71213	2.03804
H	-1.39108	2.73444	-0.150616
C	8.55464	1.67248	1.00928
C	7.61326	0.656121	0.429404
H	8.29673	1.89406	2.05129
H	8.48833	2.62158	0.465042
H	9.59074	1.3225	0.973909
C	6.18502	0.981628	0.405672
C	8.00992	-0.540988	-0.0711106
N	7.11398	-1.45879	-0.600049
H	9.04922	-0.84552	-0.0847377
N	5.3561	-0.0141405	-0.15113
C	5.73894	-1.2457	-0.669071
H	4.36464	0.190121	-0.177678
H	7.43355	-2.34302	-0.966596
O	4.94688	-2.07699	-1.14604
O	5.69073	2.04455	0.832802
