30
  This energy is -0.00282181 and Call times are: 2048
C	1.06435	0.371604	-0.805049
N	1.02466	-0.738337	-1.58897
C	0.0871032	-1.68469	-1.33949
C	0.123289	0.49081	0.23925
C	-0.7936	-0.562846	0.388053
N	-0.857033	-1.67544	-0.373715
H	0.0998562	-2.54756	-1.9932
N	2.00341	1.31462	-1.05853
H	2.64539	1.16732	-1.81994
H	2.05842	2.14736	-0.496019
N	-0.0975928	1.48355	1.20078
C	-1.12422	1.03613	1.91122
N	-1.58591	-0.198689	1.46317
H	-1.57172	1.54885	2.74645
H	-2.34886	-0.74079	1.8355
C	6.36244	-1.68883	2.11534
C	6.03648	-0.644274	1.08671
H	7.08733	-2.41108	1.72253
H	5.46871	-2.26273	2.38605
H	6.77581	-1.23935	3.02327
C	5.47205	-1.09275	-0.188701
C	6.23483	0.685123	1.27188
N	5.92297	1.62525	0.300408
H	6.64819	1.08509	2.18961
N	5.18882	-0.0632062	-1.10985
C	5.38315	1.30277	-0.94277
H	4.79771	-0.350843	-1.9985
H	6.0797	2.60898	0.461853
O	5.108	2.15568	-1.8046
O	5.24093	-2.28246	-0.484923
