30
  This energy is -0.00180667 and Call times are: 11216
C	1.35549	-0.145099	0.246215
N	1.47147	0.986319	0.990871
C	0.3715	1.75005	1.19972
C	0.0889862	-0.476797	-0.279432
C	-0.967266	0.40176	0.0129563
N	-0.882382	1.53062	0.74824
H	0.519512	2.63931	1.79917
N	2.45796	-0.905065	0.0403722
H	3.33199	-0.611004	0.444343
H	2.40442	-1.74831	-0.506414
N	-0.354857	-1.54575	-1.06633
C	-1.64879	-1.31438	-1.24262
N	-2.07365	-0.148502	-0.611027
H	-2.32033	-1.9406	-1.80622
H	-3.00341	0.238762	-0.597889
C	9.76349	1.04829	1.17613
C	8.63075	0.356527	0.473414
H	9.58915	1.08311	2.2577
H	9.85269	2.08868	0.842931
H	10.7157	0.541218	0.993085
C	7.28672	0.920082	0.623029
C	8.78207	-0.755963	-0.28842
N	7.71395	-1.37164	-0.924739
H	9.74653	-1.22452	-0.441226
N	6.26908	0.223863	-0.0613572
C	6.39987	-0.915659	-0.846184
H	5.33173	0.596356	0.0282524
H	7.85195	-2.19861	-1.48637
O	5.45159	-1.47709	-1.42191
O	7.01215	1.93598	1.2932
