30
  This energy is 3.8332e-05 and Call times are: 533
C	-0.586376	1.2113	0.32854
N	-1.86639	0.774596	0.190986
C	-2.08511	-0.513537	-0.169183
C	0.463911	0.300262	0.0892448
C	0.0977897	-1.00526	-0.277635
N	-1.16244	-1.46697	-0.421874
H	-3.1223	-0.808848	-0.264398
N	-0.373074	2.49976	0.688729
H	-1.16794	3.0977	0.844433
H	0.562897	2.85298	0.798714
N	1.85633	0.431056	0.143369
C	2.31623	-0.769111	-0.183701
N	1.29538	-1.67806	-0.448948
H	3.35733	-1.03943	-0.245357
H	1.38822	-2.64484	-0.715974
C	6.77619	2.00919	1.94724
C	6.7941	0.817323	1.0337
H	5.77105	2.44257	2.00429
H	7.43394	2.80057	1.56978
H	7.09796	1.74178	2.95828
C	6.38752	1.01708	-0.359568
C	7.16388	-0.428095	1.42501
N	7.16918	-1.50915	0.555447
H	7.47534	-0.646184	2.43915
N	6.42669	-0.140819	-1.16358
C	6.80123	-1.42472	-0.785589
H	6.14961	-0.0255145	-2.13071
H	7.44854	-2.42629	0.870369
O	6.81076	-2.40189	-1.55432
O	6.02634	2.10793	-0.845519
