30
  This energy is -0.00359728 and Call times are: 7562
C	-0.645768	-0.534494	1.10287
N	-1.20066	-1.57852	0.431929
C	-0.958801	-1.70857	-0.895261
C	0.161716	0.372727	0.385043
C	0.330548	0.121136	-0.986532
N	-0.206961	-0.905493	-1.67884
H	-1.42468	-2.55688	-1.38042
N	-0.890582	-0.408945	2.4294
H	-1.4763	-1.09189	2.88119
H	-0.494233	0.353118	2.95387
N	0.860853	1.52215	0.770918
C	1.43673	1.95132	-0.344007
N	1.14974	1.14101	-1.43932
H	2.0616	2.8254	-0.423306
H	1.46699	1.25651	-2.38832
C	7.52398	0.913357	-1.50797
C	6.48153	0.355087	-0.582197
H	7.40911	1.99794	-1.61697
H	7.4217	0.488315	-2.51309
H	8.5343	0.705163	-1.14307
C	5.07412	0.553667	-0.937402
C	6.76921	-0.319491	0.559341
N	5.78172	-0.822846	1.39382
H	7.78705	-0.501759	0.881594
N	4.14681	0.00565726	-0.0272055
C	4.41737	-0.688013	1.14633
H	3.16778	0.131233	-0.253348
H	6.02097	-1.32149	2.2379
O	3.54249	-1.14438	1.90279
O	4.67565	1.15418	-1.95582
