30
  This energy is 2.3928e-05 and Call times are: 13467
C	0.197766	-0.863948	-1.06467
N	0.387773	-1.97003	-0.297496
C	0.325038	-1.85185	1.05119
C	-0.0577246	0.364933	-0.420508
C	-0.0959971	0.347402	0.983503
N	0.0885823	-0.733548	1.77069
H	0.483594	-2.76293	1.61407
N	0.261475	-0.98735	-2.41228
H	0.447651	-1.89421	-2.80794
H	0.125197	-0.187139	-3.00726
N	-0.291425	1.65529	-0.909627
C	-0.466158	2.3962	0.176373
N	-0.358606	1.65599	1.35076
H	-0.669772	3.45417	0.180011
H	-0.450717	1.98894	2.29694
C	14.0524	2.32428	0.77665
C	13.3453	1.0218	0.533805
H	13.4018	3.17283	0.53572
H	14.9337	2.41651	0.131499
H	14.3727	2.41607	1.81886
C	12.8551	0.751501	-0.820102
C	13.136	0.0861367	1.49384
N	12.4783	-1.10807	1.23663
H	13.4715	0.221111	2.51477
N	12.201	-0.487466	-0.980723
C	11.9752	-1.46006	-0.0139405
H	11.854	-0.695019	-1.90914
H	12.3348	-1.78867	1.96774
O	11.3877	-2.53416	-0.230851
O	12.9821	1.52576	-1.79014
