30
  This energy is -0.000657741 and Call times are: 6170
C	0.0628399	-1.37035	0.192946
N	-1.1122	-1.64132	-0.434682
C	-1.82984	-0.616107	-0.955036
C	0.486343	-0.0271645	0.275806
C	-0.3526	0.93779	-0.305624
N	-1.52301	0.699045	-0.934365
H	-2.75704	-0.88738	-1.44367
N	0.776436	-2.39863	0.711386
H	0.416935	-3.33433	0.617513
H	1.65009	-2.23041	1.18186
N	1.61794	0.571586	0.841352
C	1.46212	1.86723	0.604872
N	0.286193	2.14617	-0.0865427
H	2.15142	2.63994	0.902413
H	-0.0538516	3.04745	-0.380925
C	4.9282	-1.71033	1.96598
C	5.53481	-0.687049	1.04927
H	5.37573	-2.69712	1.80058
H	3.85492	-1.82045	1.77275
H	5.06658	-1.43689	3.01638
C	5.42987	-0.913991	-0.394291
C	6.17165	0.430339	1.48148
N	6.72196	1.35685	0.607644
H	6.28523	0.659858	2.53385
N	6.01939	0.0831023	-1.19863
C	6.67588	1.23409	-0.779332
H	5.95838	-0.0536573	-2.20012
H	7.19095	2.1807	0.953573
O	7.17317	2.07234	-1.55131
O	4.87171	-1.89779	-0.920748
