30
  This energy is 0.000985943 and Call times are: 13001
C	1.04009	0.651766	-0.64222
N	0.283498	1.11462	-1.67247
C	-1.03808	0.815612	-1.70211
C	0.413714	-0.123511	0.35626
C	-0.962659	-0.35896	0.204004
N	-1.73876	0.0868428	-0.806491
H	-1.59361	1.2089	-2.54398
N	2.3606	0.953403	-0.617197
H	2.7447	1.51162	-1.36181
H	2.94713	0.625517	0.132052
N	0.898501	-0.734267	1.51851
C	-0.163008	-1.32339	2.05238
N	-1.31727	-1.12893	1.29837
H	-0.16221	-1.89473	2.96579
H	-2.2434	-1.47359	1.49354
C	10.2747	0.750164	-1.2776
C	9.09241	0.200598	-0.532282
H	10.5373	1.74938	-0.911477
H	10.0472	0.860757	-2.34408
H	11.149	0.100459	-1.17368
C	7.8414	0.961761	-0.577025
C	9.11827	-0.955841	0.176877
N	8.00751	-1.43641	0.855193
H	10.009	-1.56742	0.252091
N	6.77102	0.391748	0.142735
C	6.77386	-0.78941	0.875146
H	5.89623	0.901505	0.125271
H	8.05162	-2.29965	1.37599
O	5.786	-1.23144	1.48723
O	7.68454	2.03658	-1.1908
