30
  This energy is 7.9565e-05 and Call times are: 11061
C	0.112616	-0.415538	1.31669
N	-0.874274	0.390985	1.7896
C	-1.52845	1.20376	0.924558
C	0.414487	-0.37128	-0.0607251
C	-0.340175	0.51607	-0.845657
N	-1.32452	1.32779	-0.404813
H	-2.3047	1.82471	1.35339
N	0.763489	-1.22611	2.18543
H	0.498402	-1.20869	3.15652
H	1.49868	-1.8347	1.86604
N	1.35029	-1.05715	-0.843487
C	1.16189	-0.592112	-2.07114
N	0.150483	0.362955	-2.13098
H	1.71429	-0.900184	-2.94332
H	-0.177444	0.859811	-2.9435
C	7.48922	1.55421	-1.52265
C	8.51952	0.877331	-0.664899
H	6.47871	1.36348	-1.14332
H	7.51499	1.16301	-2.54621
H	7.64893	2.63606	-1.55928
C	8.43805	-0.578034	-0.517682
C	9.5166	1.53543	-0.0217273
N	10.4534	0.879893	0.764156
H	9.63537	2.61	-0.0869764
N	9.43405	-1.15092	0.299924
C	10.4634	-0.49827	0.967774
H	9.39672	-2.15624	0.415469
H	11.1861	1.39168	1.23271
O	11.3093	-1.07326	1.67473
O	7.57322	-1.29973	-1.05414
