30
  This energy is -0.000481497 and Call times are: 9063
C	-0.0837761	-0.0751743	-1.38071
N	0.492473	-1.3027	-1.4766
C	0.889944	-1.93131	-0.343588
C	-0.243834	0.493897	-0.0997335
C	0.21189	-0.264718	0.991065
N	0.78706	-1.48423	0.926743
H	1.34245	-2.90576	-0.476742
N	-0.479345	0.548996	-2.51618
H	-0.335656	0.0867194	-3.39893
H	-0.909061	1.45828	-2.47817
N	-0.78586	1.71039	0.330644
C	-0.658522	1.68301	1.65046
N	-0.060801	0.510502	2.10503
H	-0.973089	2.46551	2.32091
H	0.143425	0.254894	3.05768
C	4.54602	-2.20005	1.19236
C	5.35981	-1.05329	0.665001
H	4.30054	-2.90608	0.3907
H	3.59079	-1.84722	1.59787
H	5.08056	-2.73966	1.97997
C	4.77578	-0.231823	-0.398248
C	6.59981	-0.737342	1.11612
N	7.32613	0.329519	0.60708
H	7.0907	-1.30192	1.89928
N	5.59055	0.827508	-0.84841
C	6.86152	1.16986	-0.402305
H	5.20625	1.40852	-1.58336
H	8.24701	0.544672	0.959268
O	7.523	2.123	-0.849374
O	3.6482	-0.414645	-0.899964
