30
  This energy is 0.000972553 and Call times are: 11571
C	-1.36651	-0.184905	-0.132267
N	-1.63894	-0.0749756	1.19505
C	-0.617846	0.146092	2.05838
C	-0.0261838	-0.0635096	-0.555533
C	0.934585	0.164732	0.443392
N	0.694307	0.278256	1.76686
H	-0.890111	0.225407	3.10319
N	-2.39067	-0.405869	-0.991125
H	-3.3245	-0.482483	-0.622775
H	-2.22128	-0.491901	-1.97946
N	0.573051	-0.125706	-1.81883
C	1.86488	0.0610115	-1.58389
N	2.14087	0.242141	-0.231226
H	2.63678	0.0758688	-2.33535
H	3.03907	0.400604	0.196239
C	9.68429	0.931915	-2.35868
C	8.95224	0.318233	-1.19984
H	10.767	0.798918	-2.25141
H	9.5078	2.01274	-2.40401
H	9.37138	0.487906	-3.30851
C	9.26358	0.810856	0.144331
C	8.02326	-0.662351	-1.32782
N	7.36448	-1.20877	-0.235908
H	7.7453	-1.07245	-2.29095
N	8.54223	0.193609	1.18709
C	7.58767	-0.810885	1.08044
H	8.74171	0.519081	2.125
H	6.67705	-1.9376	-0.356795
O	6.98989	-1.30904	2.05018
O	10.0947	1.70587	0.398876
