30
  This energy is -0.00373822 and Call times are: 1579
C	-0.231966	1.18185	-0.684436
N	-0.463418	1.92942	0.427156
C	-0.394682	1.33544	1.64342
C	0.0712144	-0.186495	-0.522957
C	0.11036	-0.674817	0.79349
N	-0.114681	0.0423138	1.91477
H	-0.587451	1.97602	2.49462
N	-0.301875	1.78029	-1.89784
H	-0.523157	2.76142	-1.94262
H	-0.135657	1.2538	-2.73932
N	0.35371	-1.20446	-1.441
C	0.557963	-2.28016	-0.692645
N	0.423402	-2.01739	0.66806
H	0.802029	-3.26021	-1.06773
H	0.529283	-2.66543	1.43189
C	7.51404	1.66191	-1.26403
C	6.38502	0.880295	-0.655919
H	8.11595	1.02832	-1.9256
H	8.19359	2.03405	-0.488712
H	7.14363	2.5147	-1.84091
C	6.72307	-0.295831	0.149589
C	5.07576	1.20108	-0.810392
N	4.05568	0.457338	-0.234948
H	4.75549	2.05652	-1.3924
N	5.61819	-0.984606	0.69136
C	4.27093	-0.675408	0.547007
H	5.82899	-1.80111	1.25199
H	3.08895	0.716235	-0.364365
O	3.34718	-1.33292	1.05717
O	7.88361	-0.697802	0.368975
