30
  This energy is 0.0011935 and Call times are: 5920
C	0.474777	-1.16619	0.577593
N	0.435866	-1.89981	-0.566243
C	0.00566877	-1.31141	-1.70885
C	0.0636598	0.18237	0.52538
C	-0.359533	0.666932	-0.72327
N	-0.408928	-0.0366682	-1.87422
H	-0.00542436	-1.9403	-2.59
N	0.905568	-1.75897	1.71706
H	1.18475	-2.72574	1.68513
H	0.945849	-1.24247	2.57991
N	-0.0141689	1.18289	1.50096
C	-0.473843	2.24467	0.852718
N	-0.700561	1.98935	-0.497127
H	-0.660515	3.20926	1.29484
H	-1.04623	2.62982	-1.19348
C	9.55512	0.668535	0.264148
C	8.11989	0.226836	0.285176
H	9.62694	1.75997	0.193389
H	10.0748	0.266233	-0.613051
H	10.0862	0.342234	1.16345
C	7.27573	0.589324	-0.856051
C	7.56419	-0.485592	1.29739
N	6.23361	-0.878351	1.28637
H	8.13017	-0.786665	2.17037
N	5.93997	0.144659	-0.774188
C	5.34927	-0.585016	0.250612
H	5.33847	0.384169	-1.5528
H	5.84318	-1.40804	2.05145
O	4.15872	-0.943469	0.253322
O	7.66203	1.23998	-1.84801
