30
  This energy is -0.00428556 and Call times are: 10575
C	0.567701	-1.25589	-0.139583
N	0.496472	-1.27768	-1.49698
C	-0.0318758	-0.210142	-2.14356
C	0.086211	-0.117447	0.540472
C	-0.436342	0.91853	-0.25118
N	-0.51998	0.925118	-1.59845
H	-0.0646874	-0.279483	-3.22344
N	1.09667	-2.32544	0.501996
H	1.42213	-3.10621	-0.0439557
H	1.16317	-2.33942	1.50613
N	0.0172613	0.210157	1.89944
C	-0.534387	1.41597	1.92345
N	-0.829675	1.89353	0.649316
H	-0.742518	1.98588	2.81376
H	-1.24921	2.77653	0.406603
C	6.23022	2.53149	-0.181759
C	5.755	1.11726	-0.00984125
H	5.58308	3.22979	0.361375
H	6.19336	2.83056	-1.2356
H	7.25574	2.65446	0.179391
C	4.39523	0.794253	-0.449232
C	6.51114	0.126973	0.527292
N	6.04184	-1.17053	0.672538
H	7.52372	0.296051	0.872485
N	4.01127	-0.549423	-0.260029
C	4.7671	-1.57951	0.286977
H	3.07481	-0.794903	-0.556998
H	6.62361	-1.89011	1.07514
O	4.35911	-2.74614	0.422681
O	3.59968	1.60976	-0.957781
