30
  This energy is -0.000484334 and Call times are: 14073
C	1.22852	0.282888	-0.57424
N	0.79757	1.36965	-1.26801
C	-0.502111	1.74016	-1.16607
C	0.299641	-0.415496	0.225642
C	-1.01642	0.0751614	0.241704
N	-1.4728	1.14996	-0.435571
H	-0.792149	2.61184	-1.73887
N	2.52857	-0.0833643	-0.679503
H	3.13906	0.459122	-1.26823
H	2.87793	-0.883185	-0.178365
N	0.420614	-1.54525	1.04288
C	-0.795637	-1.72903	1.53871
N	-1.70578	-0.776917	1.08727
H	-1.0771	-2.51768	2.21663
H	-2.6833	-0.703665	1.31899
C	7.07831	1.99269	-1.84485
C	6.64285	1.05808	-0.752926
H	6.61452	1.72059	-2.79997
H	8.16197	1.93527	-1.99906
H	6.81416	3.0287	-1.61216
C	6.92786	-0.369248	-0.919999
C	6.00315	1.46002	0.374082
N	5.61361	0.570272	1.36476
H	5.76142	2.49899	0.561643
N	6.49335	-1.1917	0.139934
C	5.83734	-0.803374	1.30201
H	6.68028	-2.18241	0.0452461
H	5.13891	0.8937	2.19446
O	5.48303	-1.58986	2.19745
O	7.50786	-0.867969	-1.90562
