30
  This energy is 0.000439687 and Call times are: 5613
C	0.561546	-1.18461	0.447662
N	0.138233	-1.93229	-0.60583
C	-0.583662	-1.336	-1.5857
C	0.229422	0.186263	0.475402
C	-0.523607	0.676817	-0.6041
N	-0.957379	-0.0403623	-1.66225
H	-0.89533	-1.97678	-2.40075
N	1.28281	-1.78536	1.42451
H	1.48517	-2.76823	1.34318
H	1.61049	-1.25886	2.21718
N	0.505633	1.20501	1.39449
C	-0.0686809	2.28335	0.878519
N	-0.706393	2.02157	-0.331219
H	-0.0592	3.26469	1.32308
H	-1.21014	2.67153	-0.912927
C	5.68443	1.35417	2.38343
C	6.16443	0.662989	1.13953
H	5.12475	0.662423	3.02346
H	4.99765	2.17171	2.13573
H	6.51951	1.76356	2.95987
C	5.15909	0.061447	0.259845
C	7.47094	0.564959	0.786904
N	7.88177	-0.0811815	-0.370062
H	8.26529	0.986408	1.39061
N	5.67535	-0.57132	-0.889836
C	7.00703	-0.684195	-1.27123
H	4.99764	-0.994011	-1.51229
H	8.85991	-0.140901	-0.610932
O	7.38875	-1.26003	-2.30496
O	3.92909	0.0809415	0.467905
