30
  This energy is 0.000780288 and Call times are: 4929
C	0.575428	-1.16376	-0.48329
N	1.21567	-1.47924	0.673703
C	1.08249	-0.656784	1.74266
C	-0.203658	0.0117986	-0.521268
C	-0.256533	0.774162	0.657303
N	0.367467	0.486495	1.81922
H	1.61298	-0.9547	2.63813
N	0.711754	-1.98912	-1.54891
H	1.28307	-2.81269	-1.45445
H	0.25037	-1.78292	-2.41926
N	-0.968941	0.603596	-1.53269
C	-1.47026	1.69698	-0.974058
N	-1.07172	1.85027	0.351212
H	-2.11604	2.4053	-1.466
H	-1.31775	2.59421	0.984161
C	9.34145	2.14767	-0.435012
C	8.27113	1.11248	-0.239532
H	10.0408	1.84274	-1.22202
H	9.93634	2.27152	0.477216
H	8.91365	3.1176	-0.706045
C	8.68903	-0.242609	0.128566
C	6.94518	1.3611	-0.384323
N	5.98076	0.381563	-0.196615
H	6.56716	2.33935	-0.65488
N	7.63634	-1.16577	0.296812
C	6.27335	-0.934598	0.154108
H	7.90266	-2.10894	0.55162
H	5.00017	0.591131	-0.310123
O	5.39887	-1.80284	0.319498
O	9.87249	-0.601903	0.292575
