30
  This energy is 0.0015304 and Call times are: 13611
C	0.758336	-1.14469	-0.183429
N	1.48375	-0.651769	-1.22212
C	1.2414	0.610833	-1.65101
C	-0.220049	-0.316524	0.405865
C	-0.36893	0.970889	-0.135822
N	0.335685	1.48703	-1.16504
H	1.84687	0.953387	-2.48053
N	1.00441	-2.40732	0.241517
H	1.71723	-2.94519	-0.223431
H	0.484206	-2.80066	1.00805
N	-1.11308	-0.518434	1.46444
C	-1.78335	0.622244	1.55649
N	-1.37405	1.55979	0.61195
H	-2.56218	0.828728	2.27172
H	-1.72805	2.49359	0.480427
C	8.10646	0.749688	2.38614
C	7.3435	0.221503	1.20532
H	7.90182	1.81569	2.53836
H	9.18693	0.661564	2.22422
H	7.84664	0.210973	3.3024
C	7.58436	0.843987	-0.0988635
C	6.44781	-0.794993	1.2788
N	5.75863	-1.25972	0.167979
H	6.22182	-1.29945	2.21021
N	6.83703	0.302042	-1.16492
C	5.9155	-0.737065	-1.11386
H	6.98804	0.717505	-2.07597
H	5.09712	-2.01757	0.248081
O	5.29142	-1.16329	-2.10116
O	8.3794	1.78372	-0.302324
