30
  This energy is -0.000328027 and Call times are: 4479
C	0.337409	-0.967197	0.932586
N	-0.449166	-1.93889	0.398558
C	-1.1835	-1.65604	-0.704891
C	0.355271	0.299646	0.311979
C	-0.453374	0.458421	-0.825521
N	-1.2435	-0.486507	-1.37779
H	-1.79191	-2.46506	-1.08877
N	1.06949	-1.25496	2.03559
H	1.01071	-2.17985	2.42891
H	1.6614	-0.556973	2.45435
N	1.04072	1.48401	0.60575
C	0.652432	2.33511	-0.334321
N	-0.252059	1.76755	-1.22787
H	0.982956	3.35682	-0.421712
H	-0.688625	2.20735	-2.02196
C	9.22035	0.174896	-0.820402
C	7.76809	-0.0478044	-0.509274
H	9.84276	-0.0184779	0.060851
H	9.4032	1.21711	-1.10632
H	9.55803	-0.473791	-1.63429
C	7.16759	0.751122	0.561942
C	6.98514	-0.943464	-1.16173
N	5.64562	-1.1254	-0.84957
H	7.36411	-1.56607	-1.96286
N	5.8023	0.493635	0.803562
C	4.98129	-0.417199	0.14943
H	5.36674	1.03508	1.54013
H	5.08364	-1.79813	-1.34954
O	3.77986	-0.590056	0.418857
O	7.7752	1.60619	1.23739
