30
  This energy is -0.00131819 and Call times are: 13334
C	-0.0852478	-0.767707	-1.14995
N	0.297184	-1.9293	-0.556218
C	0.586461	-1.92522	0.767847
C	-0.164805	0.397292	-0.358238
C	0.162441	0.262105	1.00105
N	0.544824	-0.876235	1.61761
H	0.88554	-2.87623	1.18996
N	-0.373309	-0.777057	-2.47369
H	-0.296207	-1.64346	-2.98064
H	-0.659205	0.066665	-2.94199
N	-0.517292	1.71835	-0.657267
C	-0.404275	2.36222	0.496658
N	0.00418509	1.5294	1.53504
H	-0.599899	3.41141	0.643945
H	0.160696	1.78031	2.49793
C	4.27093	-0.355746	1.02773
C	5.68067	-0.34326	0.510139
H	3.56635	-0.0399343	0.249764
H	4.15327	0.350513	1.85764
H	3.98229	-1.35237	1.37512
C	6.21386	0.925546	0.00790444
C	6.48398	-1.43633	0.481737
N	7.78295	-1.39133	-0.00356353
H	6.15409	-2.40491	0.836856
N	7.54186	0.869055	-0.463153
C	8.38263	-0.236907	-0.50214
H	7.93073	1.73531	-0.814988
H	8.36122	-2.21827	-0.0142277
O	9.54826	-0.210439	-0.934017
O	5.58152	2.00065	-0.0216925
