30
  This energy is -0.00192985 and Call times are: 14007
C	-0.188874	-0.663178	1.20148
N	0.405403	0.289655	1.96765
C	0.903421	1.39798	1.36729
C	-0.261772	-0.455963	-0.192117
C	0.293932	0.736455	-0.684413
N	0.889402	1.69931	0.0507764
H	1.36583	2.12444	2.0234
N	-0.685088	-1.76917	1.80639
H	-0.60001	-1.85467	2.80591
H	-1.13071	-2.49231	1.26657
N	-0.795759	-1.22423	-1.23302
C	-0.565902	-0.509206	-2.32608
N	0.0912278	0.687549	-2.0529
H	-0.844893	-0.79682	-3.32618
H	0.37434	1.3964	-2.71015
C	6.98521	2.01976	1.84729
C	6.52975	1.04041	0.803806
H	8.01276	2.34802	1.65291
H	6.99031	1.55747	2.8411
H	6.33775	2.90134	1.8767
C	7.29911	-0.196074	0.643848
C	5.4508	1.23616	0.00476303
N	5.05623	0.310832	-0.950715
H	4.83813	2.12695	0.0695553
N	6.81922	-1.07187	-0.351827
C	5.71834	-0.893093	-1.18108
H	7.33622	-1.93318	-0.479365
H	4.24964	0.479201	-1.53331
O	5.35377	-1.71391	-2.04088
O	8.30827	-0.49725	1.31276
