30
  This energy is 0.000200785 and Call times are: 13423
C	-0.894405	-0.825746	-0.661223
N	-1.70595	0.17912	-1.08515
C	-1.39524	1.45661	-0.756027
C	0.241546	-0.493574	0.106657
C	0.446607	0.869654	0.376068
N	-0.340635	1.88793	-0.0307951
H	-2.07452	2.2175	-1.11891
N	-1.20934	-2.10097	-0.992853
H	-2.03514	-2.26894	-1.5437
H	-0.628478	-2.86663	-0.694086
N	1.25184	-1.27298	0.681725
C	2.04595	-0.397411	1.2831
N	1.60634	0.914889	1.13053
H	2.93765	-0.644733	1.83488
H	2.03493	1.75184	1.49167
C	8.46692	1.37838	1.89318
C	9.23728	0.767706	0.757814
H	9.13397	1.63615	2.72384
H	7.73325	0.66924	2.29346
H	7.9396	2.28327	1.5764
C	9.99812	-0.455062	1.02679
C	9.26783	1.28298	-0.496972
N	9.99034	0.694064	-1.52459
H	8.72903	2.18356	-0.764784
N	10.6985	-0.976773	-0.0804603
C	10.7446	-0.467347	-1.37272
H	11.2313	-1.82222	0.0830358
H	9.99738	1.09642	-2.45001
O	11.3876	-0.984942	-2.30256
O	10.0537	-1.02912	2.1331
