30
  This energy is -0.00389414 and Call times are: 11504
C	-0.600784	-0.495131	1.14583
N	-0.0763019	-1.74441	1.03494
C	0.736466	-2.02422	-0.0128929
C	-0.274699	0.460534	0.160575
C	0.578859	0.0386562	-0.87213
N	1.11416	-1.19305	-1.00824
H	1.12656	-3.0333	-0.0531036
N	-1.41263	-0.220485	2.19504
H	-1.60486	-0.948747	2.86308
H	-1.81633	0.694864	2.30486
N	-0.640086	1.80069	-0.0106812
C	-0.01983	2.17535	-1.12144
N	0.732564	1.14837	-1.68524
H	-0.0736661	3.15725	-1.5616
H	1.28952	1.18438	-2.52375
C	3.86739	0.173458	2.15096
C	4.7166	-0.0541797	0.933392
H	3.49677	1.20453	2.18152
H	4.45084	0.0265727	3.06714
H	3.00967	-0.505602	2.17178
C	5.90747	0.782145	0.763764
C	4.44353	-0.986577	-0.0137063
N	5.24901	-1.1717	-1.12806
H	3.58042	-1.63787	0.0489292
N	6.66048	0.517915	-0.398927
C	6.40087	-0.430153	-1.38145
H	7.48836	1.08464	-0.536161
H	5.02487	-1.87219	-1.81902
O	7.11414	-0.606595	-2.38446
O	6.27013	1.67268	1.55874
