30
  This energy is -0.00553183 and Call times are: 7740
C	-0.804518	0.61286	0.94667
N	-0.0114269	1.70641	1.09905
C	1.12821	1.79705	0.371147
C	-0.404926	-0.385075	0.032988
C	0.798819	-0.165893	-0.656925
N	1.60593	0.908242	-0.52663
H	1.7224	2.6878	0.531
N	-1.9426	0.527017	1.67657
H	-2.16927	1.27501	2.31118
H	-2.55057	-0.269923	1.5862
N	-0.982801	-1.60195	-0.346662
C	-0.144838	-2.10245	-1.24455
N	0.951595	-1.27477	-1.47135
H	-0.272318	-3.04149	-1.75711
H	1.72025	-1.43324	-2.10274
C	4.83415	1.15268	2.01342
C	5.54737	0.594679	0.815341
H	5.47083	1.86538	2.55016
H	4.58869	0.357842	2.72711
H	3.90857	1.66054	1.72598
C	6.80803	-0.117193	1.03979
C	5.09151	0.712719	-0.457129
N	5.77514	0.185444	-1.54316
H	4.16773	1.22596	-0.694408
N	7.42641	-0.615789	-0.125415
C	6.97916	-0.507316	-1.43682
H	8.2994	-1.11163	0.00662062
H	5.41551	0.286262	-2.48064
O	7.58153	-0.975093	-2.41877
O	7.33508	-0.295223	2.15652
