30
  This energy is 6.646e-06 and Call times are: 8447
C	-0.509394	-0.216975	-1.26983
N	-1.81107	-0.256718	-0.879784
C	-2.10821	-0.0926036	0.432321
C	0.480504	-0.00559291	-0.287089
C	0.0354912	0.14931	1.03616
N	-1.24802	0.114654	1.45278
H	-3.15934	-0.133053	0.688282
N	-0.217626	-0.381563	-2.58252
H	-0.972428	-0.528646	-3.23231
H	0.73627	-0.357275	-2.90251
N	1.87528	0.086124	-0.358063
C	2.25941	0.291526	0.894592
N	1.18676	0.338791	1.78108
H	3.27961	0.411945	1.21932
H	1.21969	0.482291	2.77754
C	14.6953	0.857107	1.49642
C	15.9056	0.574109	0.653469
H	14.84	0.496097	2.52119
H	13.8155	0.333805	1.10475
H	14.4759	1.92845	1.53241
C	16.327	-0.821503	0.50807
C	16.6271	1.53432	0.0223098
N	17.7415	1.23936	-0.749658
H	16.3718	2.58488	0.0871605
N	17.469	-1.01852	-0.295361
C	18.2231	-0.0523603	-0.95071
H	17.7779	-1.97609	-0.409589
H	18.262	1.97145	-1.20954
O	19.2234	-0.30281	-1.64548
O	15.7528	-1.79616	1.03429
