30
  This energy is -0.000703688 and Call times are: 5407
C	0.500175	-1.00947	-0.806114
N	1.78002	-0.906773	-0.359429
C	2.07275	0.0191913	0.58595
C	-0.472513	-0.143511	-0.263575
C	-0.0343993	0.769647	0.709678
N	1.2276	0.894535	1.17221
H	3.10623	0.0585778	0.905966
N	0.21272	-1.93663	-1.75116
H	0.954447	-2.52347	-2.0962
H	-0.725194	-2.0371	-2.10205
N	-1.84374	0.00247917	-0.502943
C	-2.22077	0.981462	0.30843
N	-1.16584	1.48307	1.06619
H	-3.22356	1.36618	0.393076
H	-1.19774	2.22305	1.74884
C	7.19827	2.58757	-1.0486
C	6.99514	1.2741	-0.349336
H	6.78526	2.5578	-2.06346
H	8.26575	2.81249	-1.1549
H	6.72228	3.40787	-0.502909
C	7.57685	0.076462	-0.960611
C	6.30608	1.13554	0.811238
N	6.13618	-0.0934179	1.43223
H	5.85046	1.97825	1.31654
N	7.34992	-1.12302	-0.254612
C	6.64855	-1.28917	0.933684
H	7.74347	-1.96365	-0.659417
H	5.61931	-0.170902	2.29548
O	6.489	-2.38414	1.50068
O	8.23116	0.0665497	-2.02285
