30
  This energy is -0.00162919 and Call times are: 14139
C	-1.0571	0.891408	0.0834646
N	-1.17952	0.817537	1.43536
C	-0.339738	0.00936834	2.12709
C	-0.0563386	0.119856	-0.543871
C	0.746001	-0.675246	0.291044
N	0.648002	-0.768797	1.63411
H	-0.480461	-0.0121041	3.2003
N	-1.89893	1.70069	-0.603367
H	-2.59139	2.22459	-0.0938376
H	-1.83346	1.77692	-1.60477
N	0.320999	-0.0254744	-1.88378
C	1.3275	-0.888593	-1.85428
N	1.62752	-1.31506	-0.563239
H	1.87072	-1.23858	-2.71636
H	2.34456	-1.96427	-0.282208
C	5.36595	1.76174	1.71784
C	6.22741	0.837934	0.905495
H	4.47378	1.24171	2.08528
H	5.00752	2.59889	1.10785
H	5.91207	2.16499	2.57597
C	5.63458	0.216755	-0.281556
C	7.51778	0.547879	1.20837
N	8.28714	-0.310779	0.436593
H	8.01792	0.97156	2.07059
N	6.49569	-0.638832	-0.999295
C	7.81855	-0.950626	-0.708796
H	6.10632	-1.07905	-1.82392
H	9.24517	-0.510899	0.682509
O	8.5191	-1.71793	-1.39171
O	4.46286	0.399007	-0.669406
