30
  This energy is -0.00589598 and Call times are: 10138
C	0.474121	-0.146087	1.29341
N	1.56446	0.647035	1.11968
C	1.77258	1.22056	-0.0905241
C	-0.397722	-0.338698	0.20109
C	-0.0646317	0.314288	-0.99711
N	1.00943	1.10662	-1.19905
H	2.65503	1.84209	-0.174332
N	0.270575	-0.717044	2.50499
H	0.932039	-0.538233	3.24261
H	-0.527314	-1.30922	2.66499
N	-1.57762	-1.07721	0.0551666
C	-1.94499	-0.872349	-1.20259
N	-1.06533	-0.0374462	-1.88656
H	-2.82057	-1.29166	-1.6698
H	-1.12646	0.265417	-2.84528
C	7.41285	-2.36298	-0.332887
C	6.73577	-1.02334	-0.28414
H	6.69714	-3.15339	-0.586686
H	7.83028	-2.6255	0.645998
H	8.22091	-2.37498	-1.07054
C	5.62886	-0.850182	0.659877
C	7.09029	0.0302814	-1.06203
N	6.44365	1.2558	-0.992714
H	7.89858	-0.0284355	-1.78056
N	5.03696	0.429788	0.65581
C	5.38236	1.5225	-0.130485
H	4.26957	0.571682	1.30108
H	6.72589	2.02484	-1.58201
O	4.81166	2.6259	-0.0783569
O	5.20538	-1.73619	1.42944
