30
  This energy is -0.00193808 and Call times are: 9460
C	0.471624	0.371431	-1.24846
N	-0.755187	0.456334	-1.82793
C	-1.85354	0.18492	-1.08175
C	0.548616	0.00268308	0.111125
C	-0.666922	-0.2512	0.767657
N	-1.89804	-0.175092	0.219254
H	-2.80475	0.267513	-1.59208
N	1.56638	0.643715	-1.9986
H	1.44107	0.901218	-2.96379
H	2.48827	0.589617	-1.59848
N	1.63103	-0.170789	0.981264
C	1.07795	-0.52104	2.13465
N	-0.311076	-0.585426	2.063
H	1.61767	-0.737475	3.04163
H	-0.953336	-0.826835	2.80044
C	5.02632	-0.368096	-2.09119
C	5.89679	-0.281184	-0.87047
H	5.58828	-0.765555	-2.9442
H	4.67156	0.625162	-2.38948
H	4.15766	-1.0102	-1.91688
C	7.10357	0.545877	-0.948208
C	5.62919	-0.922994	0.294604
N	6.45472	-0.822016	1.40508
H	4.75521	-1.55009	0.421014
N	7.8762	0.584855	0.23086
C	7.62258	-0.0629729	1.43401
H	8.7152	1.15099	0.199406
H	6.23421	-1.30918	2.26088
O	8.35353	0.0190331	2.43646
O	7.46317	1.18602	-1.95691
