30
  This energy is -0.00025424 and Call times are: 9806
C	0.798715	-1.12951	-0.072767
N	1.65609	-0.619886	-0.996486
C	1.45355	0.639098	-1.45559
C	-0.269897	-0.32182	0.370031
C	-0.364239	0.964074	-0.187282
N	0.470755	1.49649	-1.10461
H	2.16512	0.9955	-2.18954
N	1.00551	-2.38844	0.382973
H	1.78791	-2.9113	0.0251323
H	0.388325	-2.79381	1.06683
N	-1.30158	-0.543737	1.2894
C	-1.99997	0.583701	1.28437
N	-1.47745	1.53158	0.408487
H	-2.87723	0.773263	1.88039
H	-1.82682	2.45884	0.227599
C	5.70495	1.34427	2.44281
C	5.96501	0.520981	1.21398
H	4.65701	1.26222	2.75341
H	5.8878	2.40707	2.24682
H	6.34069	1.02944	3.27586
C	5.1876	0.82464	0.0098924
C	6.87526	-0.48358	1.15721
N	7.09148	-1.22605	0.00532721
H	7.48332	-0.760843	2.00954
N	5.47985	0.0158653	-1.10777
C	6.40614	-1.01703	-1.18946
H	4.95392	0.208654	-1.95135
H	7.77455	-1.96865	-0.012087
O	6.60998	-1.6899	-2.21494
O	4.32243	1.71991	-0.0709711
