30
  This energy is -0.00199721 and Call times are: 10094
C	0.592436	0.85406	-0.915768
N	1.52147	1.3425	-0.0518346
C	1.53676	0.884017	1.22347
C	-0.319923	-0.113614	-0.445058
C	-0.193755	-0.501156	0.899157
N	0.717172	-0.0344443	1.77925
H	2.29648	1.30595	1.8691
N	0.581332	1.31558	-2.18944
H	1.26099	2.00705	-2.46061
H	-0.0939926	0.973559	-2.85266
N	-1.37124	-0.798695	-1.06494
C	-1.86546	-1.58025	-0.114259
N	-1.19081	-1.44109	1.09576
H	-2.69504	-2.25687	-0.235669
H	-1.37622	-1.92242	1.96094
C	7.40457	-2.65828	-0.521078
C	6.86235	-1.297	-0.191926
H	8.29076	-2.8825	0.0837384
H	7.72333	-2.70896	-1.56856
H	6.65736	-3.43829	-0.346403
C	7.74845	-0.144847	-0.375707
C	5.60375	-1.07591	0.264113
N	5.13315	0.195372	0.559459
H	4.89712	-1.88126	0.422688
N	7.17875	1.1031	-0.0489744
C	5.89435	1.35371	0.419067
H	7.77393	1.91356	-0.168705
H	4.19251	0.334298	0.897463
O	5.45995	2.48741	0.687283
O	8.92445	-0.210678	-0.78712
