30
  This energy is -0.000286973 and Call times are: 10464
C	0.881357	-0.891691	-0.589176
N	1.9889	-0.130693	-0.383511
C	1.85658	1.06578	0.239223
C	-0.363779	-0.400585	-0.14329
C	-0.359832	0.854602	0.487195
N	0.722181	1.63175	0.70506
H	2.76954	1.63096	0.377521
N	1.01893	-2.08685	-1.21209
H	1.93701	-2.37808	-1.50522
H	0.218056	-2.67309	-1.37889
N	-1.65981	-0.925872	-0.200321
C	-2.41734	-0.00669478	0.38289
N	-1.68261	1.09293	0.81839
H	-3.48391	-0.0759524	0.51849
H	-2.02751	1.91519	1.28694
C	5.80043	0.958174	2.16046
C	6.5949	0.279544	1.08171
H	4.89908	1.42494	1.74683
H	6.38097	1.76336	2.62526
H	5.50011	0.251024	2.93956
C	7.07072	1.09888	-0.0357373
C	6.89489	-1.04368	1.0843
N	7.63142	-1.64051	0.071304
H	6.57496	-1.70687	1.87859
N	7.80965	0.401493	-1.01366
C	8.12889	-0.951025	-1.03234
H	8.14855	0.948753	-1.79536
H	7.84185	-2.62716	0.0957177
O	8.78803	-1.4984	-1.93335
O	6.86442	2.32322	-0.158187
