30
  This energy is -0.00507879 and Call times are: 7806
C	0.849255	-0.779025	-0.768711
N	1.10588	-1.6893	0.207822
C	0.520605	-1.53356	1.42027
C	-0.0193969	0.293486	-0.476262
C	-0.558059	0.335959	0.820295
N	-0.321865	-0.5521	1.8091
H	0.758903	-2.28617	2.16111
N	1.43674	-0.939173	-1.97891
H	2.04669	-1.72738	-2.12136
H	1.26666	-0.282257	-2.72217
N	-0.477034	1.372	-1.24192
C	-1.27279	2.04716	-0.423498
N	-1.35879	1.465	0.838394
H	-1.8058	2.94798	-0.678805
H	-1.89503	1.78714	1.62787
C	6.45047	-1.0984	-2.32742
C	5.75133	-0.656721	-1.0738
H	7.5283	-1.20255	-2.15759
H	6.33263	-0.354059	-3.12332
H	6.06032	-2.05586	-2.68561
C	6.16477	0.612951	-0.470976
C	4.76308	-1.36473	-0.471299
N	4.137	-0.928586	0.687423
H	4.40893	-2.31042	-0.862866
N	5.46958	0.969483	0.703025
C	4.45568	0.261669	1.33752
H	5.73933	1.84395	1.13656
H	3.40406	-1.47321	1.11701
O	3.88626	0.640949	2.3757
O	7.05774	1.35755	-0.92346
