30
  This energy is -0.00197158 and Call times are: 3956
C	-0.829031	-0.617635	-0.922098
N	-1.96421	-0.475954	-0.187686
C	-1.89249	0.135115	1.01991
C	0.380333	-0.120015	-0.392783
C	0.31412	0.491456	0.870047
N	-0.796565	0.646308	1.62143
H	-2.82515	0.221603	1.56279
N	-0.906027	-1.22916	-2.12853
H	-1.80124	-1.56149	-2.44749
H	-0.0833804	-1.34915	-2.69577
N	1.69057	-0.107651	-0.884703
C	2.39555	0.49773	0.0615528
N	1.61296	0.881862	1.14722
H	3.4558	0.684993	0.0219975
H	1.9139	1.35445	1.9843
C	7.42229	2.07314	-1.66602
C	6.8456	0.910093	-0.910906
H	8.51059	1.97921	-1.75646
H	7.23542	3.01423	-1.13609
H	6.99464	2.14827	-2.67037
C	7.32112	0.677874	0.45524
C	5.91343	0.0664666	-1.42107
N	5.40061	-0.99988	-0.696663
H	5.51859	0.1799	-2.42322
N	6.74043	-0.428968	1.10822
C	5.7857	-1.3057	0.606822
H	7.05471	-0.607949	2.05406
H	4.70754	-1.61371	-1.09818
O	5.31773	-2.26469	1.24497
O	8.17262	1.37728	1.04033
