30
  This energy is 0.000395064 and Call times are: 13445
C	-0.480691	-0.219977	-1.28046
N	0.709369	-0.00590575	-1.90175
C	1.79477	0.304132	-1.15166
C	-0.534515	-0.109581	0.124986
C	0.664012	0.217693	0.780308
N	1.85877	0.435613	0.191029
H	2.71651	0.464398	-1.6964
N	-1.56264	-0.529598	-2.03471
H	-1.45536	-0.592518	-3.03377
H	-2.45747	-0.693769	-1.60432
N	-1.57885	-0.264873	1.04374
C	-1.02003	-0.0359775	2.22451
N	0.336599	0.261092	2.12461
H	-1.53331	-0.0691362	3.17119
H	0.976028	0.470564	2.87418
C	10.4754	2.65883	-0.00780075
C	11.1151	1.30008	-0.0020843
H	9.82392	2.78756	0.864228
H	9.83958	2.78751	-0.891315
H	11.2272	3.45377	-0.00112218
C	10.2344	0.129271	-0.0103691
C	12.4566	1.09747	0.0104469
N	13.0162	-0.172021	0.0156738
H	13.1645	1.9172	0.0172003
N	10.8976	-1.11524	-0.00440021
C	12.2679	-1.34709	0.00842594
H	10.3078	-1.93837	-0.0100695
H	14.0176	-0.297011	0.0249688
O	12.7825	-2.47895	0.0130163
O	8.98775	0.177227	-0.0220949
