30
  This energy is 0.000123133 and Call times are: 8799
C	-0.410021	-0.596223	-1.18128
N	0.524243	-1.58345	-1.15661
C	1.40442	-1.62834	-0.126989
C	-0.422909	0.343312	-0.12892
C	0.545315	0.181372	0.875739
N	1.484	-0.787357	0.926866
H	2.12668	-2.43426	-0.156473
N	-1.28753	-0.555725	-2.21264
H	-1.22343	-1.25744	-2.93172
H	-1.99081	0.162696	-2.25932
N	-1.23481	1.45235	0.13514
C	-0.764704	1.94549	1.27299
N	0.313296	1.21534	1.76642
H	-1.15318	2.81225	1.78147
H	0.838383	1.38879	2.60832
C	7.59391	0.439897	2.32575
C	6.67345	0.326607	1.1445
H	8.59491	0.757563	2.01192
H	7.71738	-0.530979	2.81925
H	7.2149	1.15771	3.05947
C	7.04675	-0.599795	0.0726672
C	5.52113	1.03115	1.01525
N	4.69222	0.903476	-0.0899392
H	5.18546	1.73268	1.76908
N	6.14072	-0.658799	-1.00636
C	4.95641	0.0519905	-1.16049
H	6.37919	-1.29319	-1.75875
H	3.83981	1.43863	-0.163107
O	4.20455	-0.0529677	-2.14517
O	8.0763	-1.30448	0.068321
