30
  This energy is -0.00120278 and Call times are: 6385
C	0.158491	-1.28996	-0.47949
N	0.545348	-1.82148	0.710427
C	0.627553	-1.01252	1.79471
C	-0.142092	0.0873563	-0.534336
C	-0.0157723	0.810706	0.663091
N	0.365528	0.310954	1.85768
H	0.940246	-1.48662	2.71639
N	0.0778928	-2.10278	-1.56032
H	0.306591	-3.07727	-1.45236
H	-0.205434	-1.73925	-2.45501
N	-0.558352	0.920804	-1.57882
C	-0.679338	2.118	-1.02117
N	-0.363369	2.10981	0.334841
H	-0.985688	3.0141	-1.53489
H	-0.378176	2.88868	0.973385
C	5.36716	2.5749	1.08932
C	5.38518	1.13303	0.66967
H	4.67667	3.15458	0.465932
H	6.35588	3.03085	0.963061
H	5.06533	2.68217	2.13557
C	5.77154	0.82681	-0.709951
C	5.06496	0.103252	1.49304
N	5.09142	-1.21904	1.07387
H	4.77071	0.257971	2.52384
N	5.768	-0.544381	-1.03936
C	5.44426	-1.61498	-0.214388
H	6.03214	-0.778874	-1.98839
H	4.84892	-1.9679	1.70534
O	5.46401	-2.80412	-0.57696
O	6.08813	1.67804	-1.56537
