30
  This energy is -0.00318559 and Call times are: 2004
C	0.566925	1.21985	0.331037
N	-0.609276	1.82703	0.640812
C	-1.76099	1.12108	0.531127
C	0.537528	-0.125317	-0.0932437
C	-0.723858	-0.739387	-0.162846
N	-1.90677	-0.162787	0.137886
H	-2.66819	1.65214	0.789983
N	1.71537	1.92982	0.442324
H	1.6659	2.88678	0.751157
H	2.60198	1.50845	0.220352
N	1.5473	-1.01551	-0.476354
C	0.906689	-2.13915	-0.769508
N	-0.470619	-2.029	-0.597585
H	1.37329	-3.05036	-1.10529
H	-1.16757	-2.73924	-0.75385
C	7.02142	-1.96022	-1.58116
C	6.44329	-0.785733	-0.845104
H	6.22727	-2.61989	-1.94934
H	7.64635	-2.56829	-0.917015
H	7.62886	-1.63795	-2.43228
C	5.6032	-1.05718	0.324069
C	6.65453	0.506411	-1.20101
N	6.10511	1.56967	-0.499245
H	7.26442	0.778284	-2.05376
N	5.09213	0.087854	0.96935
C	5.29447	1.4187	0.623678
H	4.50861	-0.0766634	1.78043
H	6.27694	2.52252	-0.78368
O	4.80852	2.38066	1.24366
O	5.33148	-2.19585	0.75553
