30
  This energy is 0.000541879 and Call times are: 10598
C	0.364547	-1.05197	-0.824314
N	0.85012	-0.268434	-1.82349
C	0.810905	1.07858	-1.67902
C	-0.161688	-0.425917	0.325249
C	-0.141672	0.978428	0.346107
N	0.3332	1.78161	-0.629382
H	1.21026	1.65494	-2.50386
N	0.406034	-2.39784	-0.973574
H	0.795077	-2.78013	-1.8198
H	0.054386	-3.00466	-0.251757
N	-0.724564	-0.934107	1.50159
C	-1.03567	0.141015	2.21308
N	-0.704859	1.32639	1.56183
H	-1.49359	0.129037	3.18823
H	-0.840608	2.2677	1.89364
C	7.97548	-0.263027	2.54922
C	7.43271	-0.291806	1.14921
H	7.1724	-0.0956365	3.27616
H	8.68534	0.562447	2.67605
H	8.48238	-1.19975	2.79992
C	6.72466	0.896046	0.665409
C	7.56081	-1.35155	0.311683
N	7.04712	-1.34634	-0.977091
H	8.07178	-2.26057	0.604387
N	6.24049	0.804206	-0.655888
C	6.35939	-0.268845	-1.5311
H	5.74772	1.6145	-1.01088
H	7.15534	-2.14721	-1.58145
O	5.90419	-0.277331	-2.68809
O	6.53853	1.93383	1.33244
