30
  This energy is -0.00310786 and Call times are: 6216
C	-0.471583	-1.26824	0.296978
N	0.145287	-1.88136	-0.747832
C	0.899143	-1.13716	-1.59324
C	-0.299443	0.122877	0.456696
C	0.507868	0.773449	-0.490948
N	1.13218	0.192024	-1.53707
H	1.3677	-1.67493	-2.40767
N	-1.22399	-2.01656	1.13916
H	-1.30535	-3.00533	0.967976
H	-1.69317	-1.59194	1.92177
N	-0.786523	1.03068	1.40407
C	-0.282997	2.20036	1.03369
N	0.508568	2.10362	-0.107688
H	-0.450481	3.13665	1.53973
H	0.997365	2.8466	-0.580611
C	4.87594	-0.433924	2.76505
C	5.00436	-0.343226	1.2715
H	3.83187	-0.592825	3.05842
H	5.19302	0.500706	3.24183
H	5.4794	-1.25271	3.16838
C	4.25252	0.708849	0.58282
C	5.774	-1.17743	0.528078
N	5.87091	-1.06699	-0.851509
H	6.35529	-1.97619	0.972095
N	4.41669	0.739325	-0.817467
C	5.19809	-0.10313	-1.59929
H	3.90589	1.45908	-1.31389
H	6.45038	-1.69975	-1.38271
O	5.29405	-0.0151389	-2.8358
O	3.51083	1.53839	1.14703
