30
  This energy is -0.00282093 and Call times are: 9570
C	1.12989	0.502772	-0.624175
N	0.56318	0.597674	-1.85621
C	-0.728376	0.218977	-2.01532
C	0.345181	0.0118119	0.440507
C	-0.97924	-0.345247	0.138116
N	-1.56846	-0.262147	-1.07353
H	-1.12994	0.314931	-3.01611
N	2.42119	0.882577	-0.470361
H	2.92494	1.22435	-1.27225
H	2.86895	0.824212	0.429089
N	0.622728	-0.203457	1.79531
C	-0.509714	-0.679185	2.29545
N	-1.51366	-0.785953	1.33662
H	-0.664603	-0.959933	3.32402
H	-2.45556	-1.11776	1.46826
C	7.44771	-1.19509	2.30401
C	6.83701	-0.722913	1.01579
H	6.9596	-0.722384	3.16407
H	8.50702	-0.918874	2.35842
H	7.36515	-2.28097	2.41025
C	6.87048	0.713368	0.728785
C	6.25866	-1.54841	0.107489
N	5.70272	-1.0799	-1.07415
H	6.19944	-2.61962	0.256009
N	6.28088	1.09026	-0.495555
C	5.68351	0.26418	-1.44017
H	6.29305	2.07892	-0.714259
H	5.27806	-1.71405	-1.73436
O	5.18194	0.670651	-2.50277
O	7.37073	1.57672	1.47775
