30
  This energy is -0.00185051 and Call times are: 1491
C	0.325891	1.2184	-0.572991
N	-0.692484	1.90796	0.00622718
C	-1.54782	1.24978	0.826011
C	0.448805	-0.159118	-0.294263
C	-0.505333	-0.716842	0.572677
N	-1.5258	-0.0582495	1.16181
H	-2.34013	1.84597	1.26057
N	1.17814	1.88088	-1.39162
H	1.03372	2.86487	-1.54818
H	1.94183	1.39834	-1.83528
N	1.36332	-1.12937	-0.719857
C	0.967286	-2.24493	-0.12188
N	-0.15968	-2.05351	0.673089
H	1.44439	-3.20577	-0.221441
H	-0.646408	-2.742	1.22415
C	4.91959	2.51437	0.989357
C	5.16934	1.09903	0.553623
H	4.74759	3.16489	0.12412
H	5.79156	2.92107	1.51439
H	4.05181	2.58039	1.65257
C	6.30243	0.848345	-0.340615
C	4.40763	0.0447879	0.940003
N	4.6652	-1.25183	0.518938
H	3.55573	0.15855	1.59908
N	6.48162	-0.500305	-0.71172
C	5.71567	-1.59514	-0.329323
H	7.25948	-0.696433	-1.32968
H	4.08396	-2.01975	0.820267
O	5.93544	-2.76176	-0.698917
O	7.07844	1.72655	-0.76855
