30
  This energy is 0.000367172 and Call times are: 8843
C	-1.04229	-0.830591	-0.377856
N	-1.58017	0.0393894	-1.27334
C	-0.987756	1.24487	-1.45418
C	0.114872	-0.438959	0.327804
C	0.626788	0.838052	0.0445939
N	0.115132	1.72225	-0.837781
H	-1.45662	1.89882	-2.17845
N	-1.63821	-2.03428	-0.200753
H	-2.46234	-2.25095	-0.736902
H	-1.26401	-2.69995	0.45482
N	0.894118	-1.08552	1.29403
C	1.85265	-0.216249	1.58465
N	1.73984	0.965855	0.857617
H	2.64287	-0.3791	2.29865
H	2.3419	1.7723	0.899665
C	6.86843	0.879006	-1.82505
C	7.9461	0.584408	-0.821419
H	5.90209	0.487595	-1.48684
H	7.08254	0.390775	-2.78274
H	6.76724	1.95475	-1.99761
C	8.202	-0.818149	-0.484155
C	8.69214	1.54023	-0.212508
N	9.681	1.23451	0.711363
H	8.55579	2.59545	-0.414926
N	9.22537	-1.02596	0.463589
C	10.0016	-0.0644707	1.09964
H	9.41915	-1.98847	0.711433
H	10.2229	1.96352	1.15098
O	10.8907	-0.324544	1.92894
O	7.58903	-1.78978	-0.970736
