30
  This energy is -0.00641878 and Call times are: 5879
C	0.137279	-1.37697	-0.0642922
N	-0.704898	-1.63736	0.970603
C	-1.29856	-0.600463	1.61034
C	0.357851	-0.0321576	-0.429237
C	-0.320595	0.945426	0.31713
N	-1.16153	0.717367	1.34815
H	-1.95927	-0.863629	2.42658
N	0.72818	-2.4169	-0.700485
H	0.52732	-3.3531	-0.389371
H	1.35656	-2.2567	-1.47015
N	1.14639	0.557871	-1.42369
C	0.946019	1.86074	-1.27785
N	0.0665657	2.15269	-0.238619
H	1.39918	2.62993	-1.88097
H	-0.242406	3.06132	0.0671982
C	6.76929	-2.31417	0.931625
C	6.25639	-1.00235	0.410567
H	6.43517	-3.14373	0.297904
H	6.37919	-2.51489	1.93608
H	7.86259	-2.32669	0.973804
C	4.80581	-0.831779	0.296008
C	7.05774	0.0285038	0.041647
N	6.55177	1.22859	-0.436527
H	8.13765	-0.0297711	0.10043
N	4.39049	0.421556	-0.199315
C	5.19135	1.49067	-0.582979
H	3.39135	0.5612	-0.286605
H	7.16849	1.98099	-0.704654
O	4.75122	2.57117	-1.01275
O	3.96164	-1.69851	0.600511
