30
  This energy is -0.0103026 and Call times are: 12957
C	-1.19863	0.637512	0.275498
N	-0.989648	0.727945	1.61573
C	0.158978	0.230873	2.13575
C	-0.205958	0.0271926	-0.519786
C	0.936555	-0.445567	0.146685
N	1.17143	-0.369945	1.47382
H	0.274616	0.328881	3.20769
N	-2.34836	1.13588	-0.239377
H	-3.01567	1.55912	0.384456
H	-2.53226	1.08407	-1.22751
N	-0.117566	-0.21658	-1.89515
C	1.05193	-0.822229	-2.05124
N	1.73278	-0.986899	-0.847914
H	1.45561	-1.15997	-2.99131
H	2.63331	-1.41515	-0.705671
C	7.56573	2.11484	1.41524
C	6.78021	1.06593	0.681636
H	8.32906	2.55733	0.764911
H	8.09959	1.6784	2.26724
H	6.9163	2.91456	1.78393
C	7.51342	-0.0746874	0.126851
C	5.4359	1.11571	0.504776
N	4.73944	0.129539	-0.178787
H	4.83267	1.92946	0.888178
N	6.71782	-1.02261	-0.549269
C	5.34186	-0.992922	-0.742758
H	7.20437	-1.81972	-0.940796
H	3.73905	0.188955	-0.297245
O	4.70553	-1.8697	-1.35287
O	8.74657	-0.24022	0.219063
