30
  This energy is -0.00101956 and Call times are: 240
C	-0.546342	1.06408	0.698763
N	-0.484538	0.462172	1.91612
C	0.0201214	-0.792677	2.00281
C	-0.0802118	0.352939	-0.427008
C	0.418167	-0.939988	-0.196831
N	0.491947	-1.56275	0.998537
H	0.0463608	-1.22482	2.99509
N	-1.05163	2.31845	0.617431
H	-1.36712	2.76975	1.46027
H	-1.11062	2.79075	-0.269335
N	-0.00727213	0.680894	-1.78568
C	0.523073	-0.391127	-2.35873
N	0.800645	-1.40341	-1.4439
H	0.727491	-0.495368	-3.4114
H	1.2027	-2.3076	-1.63201
C	8.00545	-1.49124	0.249966
C	6.71396	-0.726007	0.293772
H	8.83293	-0.843484	-0.0616194
H	7.95375	-2.30301	-0.484705
H	8.24812	-1.92056	1.22671
C	6.25307	-0.0903763	-0.94314
C	5.95407	-0.591082	1.4097
N	4.76485	0.123443	1.41685
H	6.23525	-1.03451	2.357
N	5.03498	0.611813	-0.834192
C	4.2405	0.763486	0.29601
H	4.69753	1.05908	-1.67769
H	4.21696	0.209529	2.25991
O	3.173	1.40063	0.316222
O	6.85589	-0.137879	-2.03444
