30
  This energy is 0.00016388 and Call times are: 11769
C	-1.07146	0.865335	0.149031
N	-1.13792	1.21294	-1.16353
C	-0.254192	0.665222	-2.03295
C	-0.0806422	-0.0549463	0.551193
C	0.771156	-0.546172	-0.451882
N	0.729149	-0.219826	-1.76105
H	-0.351232	0.976181	-3.06539
N	-1.95706	1.41561	1.01405
H	-2.6394	2.06629	0.661022
H	-1.93346	1.17839	1.99184
N	0.24558	-0.60531	1.796
C	1.27043	-1.40914	1.54614
N	1.63096	-1.41241	0.201267
H	1.78586	-2.00481	2.28117
H	2.37224	-1.93714	-0.234347
C	9.96153	-1.92094	0.8743
C	10.8205	-0.765344	0.447399
H	10.4499	-2.49855	1.66756
H	9.79805	-2.61467	0.0415904
H	8.9881	-1.58071	1.24024
C	12.1592	-1.06191	-0.0686082
C	10.4276	0.531703	0.512854
N	11.2461	1.57711	0.110284
H	9.45223	0.821739	0.88368
N	12.9136	0.066307	-0.451599
C	12.533	1.40174	-0.393753
H	13.8425	-0.115701	-0.811445
H	10.9312	2.53405	0.168603
O	13.2562	2.34786	-0.751261
O	12.6405	-2.2075	-0.180412
