30
  This energy is -6.2884e-05 and Call times are: 10863
C	0.775123	0.284954	1.11221
N	-0.239724	0.165165	2.00877
C	-1.47933	-0.147494	1.5588
C	0.492558	0.0776024	-0.254362
C	-0.835002	-0.240928	-0.584728
N	-1.86207	-0.366513	0.282184
H	-2.25021	-0.23046	2.31437
N	2.01234	0.597629	1.56705
H	2.14576	0.732513	2.55579
H	2.7842	0.693381	0.928321
N	1.29405	0.125018	-1.40076
C	0.466351	-0.158701	-2.3974
N	-0.835615	-0.389231	-1.96104
H	0.7422	-0.211882	-3.43751
H	-1.63926	-0.620954	-2.52234
C	11.844	2.13508	-1.74122
C	11.7611	0.970403	-0.796712
H	11.3585	3.01996	-1.31381
H	11.3194	1.91607	-2.67839
H	12.883	2.3865	-1.97434
C	10.4301	0.513268	-0.389426
C	12.8449	0.321282	-0.301889
N	12.734	-0.752229	0.569963
H	13.8571	0.606574	-0.56104
N	10.4221	-0.582973	0.497635
C	11.5174	-1.26286	1.01707
H	9.51221	-0.915638	0.792223
H	13.5555	-1.219	0.92452
O	11.4322	-2.22606	1.79866
O	9.35621	1.02137	-0.770516
