30
  This energy is -0.0035657 and Call times are: 8070
C	-1.21873	-0.644792	0.134061
N	-0.865389	-1.35693	1.23682
C	0.382048	-1.20471	1.74434
C	-0.266953	0.22605	-0.437005
C	0.988985	0.288834	0.188855
N	1.36793	-0.405133	1.28292
H	0.611083	-1.79497	2.62251
N	-2.4668	-0.800515	-0.369365
H	-3.09756	-1.43892	0.0868947
H	-2.75832	-0.287434	-1.18464
N	-0.314564	1.07843	-1.54608
C	0.885975	1.6406	-1.58545
N	1.71621	1.1992	-0.558547
H	1.21046	2.36101	-2.3179
H	2.66728	1.47621	-0.375982
C	7.59487	-2.55635	-0.70618
C	7.04541	-1.26291	-0.176529
H	8.68044	-2.49252	-0.843488
H	7.17103	-2.78692	-1.69035
H	7.3778	-3.3887	-0.029936
C	7.25632	-0.0523005	-0.974243
C	6.36802	-1.15363	0.993996
N	5.87302	0.0574359	1.45568
H	6.17682	-2.00733	1.63252
N	6.71612	1.12721	-0.421404
C	6.01978	1.26333	0.773647
H	6.85027	1.97633	-0.956574
H	5.37207	0.11319	2.32992
O	5.57081	2.34201	1.19884
O	7.86057	-0.0158548	-2.06517
