30
  This energy is -0.000828641 and Call times are: 10226
C	0.775036	-1.12789	0.215
N	1.1211	-1.29504	-1.08898
C	0.650157	-0.419668	-2.01027
C	-0.0634021	-0.0451831	0.554323
C	-0.480122	0.786429	-0.498192
N	-0.153275	0.645513	-1.8003
H	0.956151	-0.598731	-3.03318
N	1.2484	-2.00558	1.13203
H	1.84295	-2.75679	0.822531
H	1.01015	-1.9086	2.10503
N	-0.590238	0.393091	1.77466
C	-1.30737	1.46402	1.46206
N	-1.27627	1.74834	0.0993937
H	-1.86207	2.06592	2.16262
H	-1.73751	2.50421	-0.380731
C	5.39801	1.50172	-2.35373
C	5.25888	0.854949	-1.00548
H	4.66532	1.09437	-3.05987
H	6.38652	1.30151	-2.78286
H	5.25782	2.58518	-2.29284
C	5.4212	-0.59881	-0.924052
C	4.99236	1.53868	0.135744
N	4.86963	0.910584	1.36671
H	4.86061	2.61366	0.147588
N	5.27852	-1.1428	0.369162
C	5.00602	-0.463622	1.5507
H	5.38697	-2.14647	0.448582
H	4.67101	1.44115	2.20181
O	4.89374	-1.01383	2.66001
O	5.66759	-1.34233	-1.89516
