30
  This energy is 5.4061e-05 and Call times are: 12209
C	0.532531	-1.26249	0.203859
N	1.13293	-1.34544	-1.01298
C	1.01413	-0.306773	-1.87548
C	-0.191699	-0.0931249	0.517605
C	-0.235352	0.90744	-0.467274
N	0.349979	0.853327	-1.68244
H	1.51132	-0.424787	-2.8299
N	0.654266	-2.30339	1.06238
H	1.18567	-3.10896	0.775556
H	0.221422	-2.27214	1.97044
N	-0.907633	0.29579	1.65561
C	-1.37093	1.50299	1.3608
N	-0.994381	1.92326	0.0879067
H	-1.97339	2.11314	2.01311
H	-1.22008	2.79553	-0.362416
C	16.442	2.17314	0.644793
C	15.5106	1.00729	0.475192
H	16.1529	3.00264	-0.010777
H	17.4657	1.89918	0.364915
H	16.4478	2.53202	1.67843
C	15.3938	0.413377	-0.858986
C	14.7748	0.476141	1.48383
N	13.9226	-0.602075	1.29379
H	14.8127	0.865848	2.49366
N	14.5037	-0.676614	-0.950188
C	13.7406	-1.23713	0.0672082
H	14.4077	-1.10265	-1.86379
H	13.3855	-0.979592	2.06016
O	12.9736	-2.20305	-0.0892422
O	16.0131	0.805464	-1.86859
