30
  This energy is -0.000312358 and Call times are: 13897
C	0.820341	1.03554	-0.416818
N	0.218785	1.19599	-1.62531
C	-0.826291	0.39623	-1.94942
C	0.328273	0.0386317	0.451752
C	-0.760526	-0.720217	-0.00834141
N	-1.37745	-0.583894	-1.20124
H	-1.26827	0.566155	-2.92299
N	1.86456	1.83745	-0.0976051
H	2.16588	2.52952	-0.76382
H	2.33075	1.74323	0.789354
N	0.715336	-0.370571	1.733
C	-0.12229	-1.35325	2.03567
N	-1.0374	-1.60745	1.01752
H	-0.118721	-1.91012	2.95797
H	-1.76907	-2.29967	1.00839
C	12.0285	-0.253248	-0.223773
C	10.5654	-0.0966981	0.076425
H	12.3682	0.517879	-0.92478
H	12.2277	-1.21813	-0.704119
H	12.6319	-0.186386	0.686531
C	9.62576	-0.16374	-1.04564
C	10.0677	0.102573	1.32284
N	8.70923	0.243713	1.56664
H	10.7051	0.162496	2.19646
N	8.2683	-0.00942956	-0.696138
C	7.73579	0.195356	0.571169
H	7.60111	-0.0525365	-1.45668
H	8.36325	0.391107	2.50309
O	6.52107	0.323182	0.803605
O	9.95193	-0.342127	-2.23659
