30
  This energy is 0.000168266 and Call times are: 7405
C	0.816766	-0.306517	1.07609
N	0.64856	0.885701	1.70728
C	-0.148705	1.82256	1.1385
C	0.150884	-0.517873	-0.149589
C	-0.644912	0.5364	-0.627333
N	-0.830632	1.72938	-0.0236103
H	-0.24792	2.75323	1.68259
N	1.6147	-1.23965	1.64875
H	2.06067	-1.02438	2.52532
H	1.75915	-2.13189	1.20611
N	0.115837	-1.6068	-1.02815
C	-0.683169	-1.21528	-2.01161
N	-1.17239	0.0742727	-1.82083
H	-0.942498	-1.80706	-2.87376
H	-1.79252	0.591026	-2.42333
C	10.3534	-1.32079	-2.20734
C	9.86702	-0.720588	-0.919476
H	10.8095	-0.556341	-2.84686
H	9.5207	-1.74649	-2.77894
H	11.0907	-2.10889	-2.02683
C	8.87195	0.351872	-0.997317
C	10.2959	-1.11424	0.306104
N	9.82631	-0.538573	1.47784
H	11.0294	-1.90044	0.436311
N	8.45755	0.871639	0.246385
C	8.88198	0.485126	1.5121
H	7.76969	1.61416	0.216015
H	10.1607	-0.848812	2.37799
O	8.46944	0.992187	2.56974
O	8.39658	0.805239	-2.058
