30
  This energy is -0.00234216 and Call times are: 669
C	-0.887842	0.903793	0.560291
N	-1.01597	0.241432	1.74052
C	-0.324954	-0.909737	1.9253
C	-0.0369763	0.361508	-0.42577
C	0.619956	-0.837791	-0.10461
N	0.512463	-1.51708	1.05693
H	-0.463177	-1.39636	2.88245
N	-1.58068	2.05402	0.380525
H	-2.17084	2.38612	1.12551
H	-1.5069	2.56734	-0.482008
N	0.304654	0.787565	-1.71442
C	1.14794	-0.135239	-2.15734
N	1.37513	-1.14306	-1.22388
H	1.61964	-0.131545	-3.12598
H	1.971	-1.94906	-1.32336
C	3.92547	1.30154	1.42887
C	5.09312	0.575917	0.8243
H	2.98419	0.791895	1.19297
H	3.84052	2.31461	1.01917
H	4.01977	1.37268	2.51666
C	5.11094	0.400417	-0.630099
C	6.12727	0.0761368	1.54657
N	7.19186	-0.590086	0.956959
H	6.17775	0.170242	2.62437
N	6.23376	-0.288497	-1.13344
C	7.30337	-0.808628	-0.414427
H	6.26662	-0.421004	-2.13682
H	7.94977	-0.952936	1.51577
O	8.26341	-1.40733	-0.929964
O	4.22495	0.810715	-1.40678
