30
  This energy is -0.0026789 and Call times are: 10249
C	0.250079	-0.474336	-1.2773
N	1.06127	0.554914	-1.6388
C	1.30437	1.54403	-0.744708
C	-0.306224	-0.468182	0.0191758
C	0.0274608	0.617409	0.845716
N	0.828853	1.65204	0.514821
H	1.95664	2.33879	-1.08375
N	0.0102206	-1.46055	-2.17463
H	0.439119	-1.40386	-3.08371
H	-0.585858	-2.23587	-1.93699
N	-1.15901	-1.3571	0.683586
C	-1.33361	-0.817451	1.88241
N	-0.638381	0.379137	2.03572
H	-1.93953	-1.2354	2.66913
H	-0.611238	0.973618	2.84841
C	7.39599	1.40679	1.29199
C	6.37586	0.499877	0.66568
H	6.91779	2.12407	1.96892
H	7.91348	1.99885	0.528401
H	8.14154	0.838867	1.85667
C	5.30801	1.11518	-0.126467
C	6.38799	-0.850967	0.792167
N	5.42973	-1.66122	0.200495
H	7.14761	-1.37081	1.36297
N	4.38384	0.2091	-0.686471
C	4.37595	-1.17586	-0.570799
H	3.63702	0.613035	-1.2383
H	5.46013	-2.66403	0.309124
O	3.52376	-1.9135	-1.09575
O	5.18272	2.34125	-0.320386
