30
  This energy is -0.0017732 and Call times are: 7115
C	-0.440984	-1.23552	-0.44503
N	-0.592459	-1.77098	0.795294
C	-0.29884	-1.01106	1.87842
C	0.0175153	0.0944462	-0.551461
C	0.285027	0.769614	0.650874
N	0.144254	0.264709	1.89483
H	-0.436996	-1.48603	2.84141
N	-0.735816	-1.99923	-1.52447
H	-1.05871	-2.94153	-1.3782
H	-0.633977	-1.63147	-2.45575
N	0.272932	0.918469	-1.65355
C	0.684656	2.06299	-1.12494
N	0.711464	2.02931	0.266752
H	0.972547	2.93738	-1.6847
H	0.985331	2.76868	0.893597
C	5.57767	-2.77265	-0.0905791
C	5.6304	-1.27298	-0.150945
H	5.46931	-3.11838	0.943887
H	6.50825	-3.21172	-0.468223
H	4.74315	-3.1665	-0.678543
C	6.698	-0.595601	0.589184
C	4.74855	-0.514236	-0.849214
N	4.8248	0.870609	-0.8844
H	3.93585	-0.949289	-1.41782
N	6.69109	0.811177	0.491141
C	5.79967	1.60863	-0.216681
H	7.42077	1.3	0.99515
H	4.15679	1.41328	-1.4113
O	5.85665	2.85002	-0.256853
O	7.57011	-1.17418	1.26833
