30
  This energy is -0.00113341 and Call times are: 10381
C	0.288581	1.20935	0.610926
N	0.264534	1.93995	-0.535244
C	0.00282557	1.31275	-1.70783
C	0.0388559	-0.176798	0.529687
C	-0.218636	-0.699475	-0.748409
N	-0.249054	0.000159244	-1.90243
H	-0.00423067	1.94104	-2.58944
N	0.550649	1.84099	1.78042
H	0.720211	2.83331	1.76822
H	0.575427	1.32776	2.6458
N	-0.00806355	-1.18491	1.49941
C	-0.287497	-2.28843	0.818932
N	-0.42569	-2.0532	-0.546441
H	-0.400719	-3.27031	1.2477
H	-0.635895	-2.72496	-1.26696
C	8.33116	0.503159	1.08372
C	6.90512	0.312127	0.65322
H	8.88363	1.1021	0.350611
H	8.8508	-0.459483	1.1522
H	8.39104	1.00108	2.05621
C	6.66104	-0.343909	-0.633808
C	5.83547	0.7115	1.38622
N	4.52925	0.520185	0.959578
H	5.94358	1.20225	2.34567
N	5.30173	-0.492329	-0.97866
C	4.19109	-0.0919012	-0.245369
H	5.10994	-0.943579	-1.86466
H	3.7499	0.826148	1.52293
O	3.01576	-0.257311	-0.615677
O	7.55319	-0.75749	-1.40165
