30
  This energy is -0.00217974 and Call times are: 9548
C	-0.677057	0.294856	-1.17204
N	-1.37528	-0.870872	-1.21247
C	-1.18745	-1.78274	-0.227554
C	0.217118	0.505879	-0.101397
C	0.316206	-0.520913	0.851966
N	-0.363186	-1.68728	0.838123
H	-1.76804	-2.69294	-0.308166
N	-0.868384	1.20307	-2.1589
H	-1.52194	0.989608	-2.89436
H	-0.366408	2.07538	-2.15704
N	1.06378	1.57179	0.223948
C	1.65811	1.19364	1.34763
N	1.24316	-0.0653366	1.77362
H	2.38432	1.77442	1.89175
H	1.5465	-0.567177	2.59261
C	9.09582	0.717982	-0.915263
C	7.79319	0.160756	-0.417191
H	9.48527	1.47624	-0.226231
H	8.96305	1.21682	-1.88218
H	9.84836	-0.0680701	-1.02945
C	6.68276	1.09455	-0.21378
C	7.58854	-1.15288	-0.146266
N	6.37187	-1.63594	0.313317
H	8.36526	-1.8968	-0.274184
N	5.48901	0.50784	0.254623
C	5.2562	-0.832567	0.538662
H	4.70805	1.13533	0.402151
H	6.24415	-2.61788	0.507808
O	4.17125	-1.27869	0.950675
O	6.73895	2.32296	-0.424581
