30
  This energy is -5.375e-06 and Call times are: 12429
C	-0.558425	-0.841533	-0.948164
N	-1.24882	0.135103	-1.59439
C	-1.15857	1.41023	-1.1441
C	0.225855	-0.48363	0.168605
C	0.230946	0.873911	0.529269
N	-0.443328	1.86446	-0.0922994
H	-1.72804	2.14812	-1.6948
N	-0.65196	-2.11451	-1.40219
H	-1.2298	-2.30177	-2.20507
H	-0.152946	-2.8596	-0.945313
N	1.03594	-1.23163	1.03065
C	1.51683	-0.343173	1.88988
N	1.06242	0.947746	1.63355
H	2.18569	-0.566269	2.70451
H	1.28381	1.78876	2.14176
C	19.7499	1.02839	-2.56406
C	19.3877	0.612998	-1.16702
H	19.5476	0.22048	-3.27664
H	20.8209	1.24848	-2.64089
H	19.1891	1.91511	-2.87466
C	20.0585	-0.563131	-0.607399
C	18.4782	1.26304	-0.398138
N	18.1658	0.85308	0.889947
H	17.9458	2.13859	-0.748923
N	19.6737	-0.899434	0.706957
C	18.7461	-0.249803	1.51263
H	20.1252	-1.70946	1.11365
H	17.4855	1.35338	1.44244
O	18.457	-0.606276	2.66816
O	20.9117	-1.2478	-1.20732
