30
  This energy is -4.3835e-05 and Call times are: 13533
C	-0.360791	-1.33712	0.0313337
N	0.277455	-1.66829	-1.12237
C	0.94812	-0.705642	-1.80087
C	-0.297028	0.000769852	0.474457
C	0.431908	0.89764	-0.323852
N	1.07499	0.598261	-1.47233
H	1.43819	-1.02317	-2.71249
N	-1.02976	-2.30299	0.705817
H	-1.03565	-3.23863	0.334145
H	-1.51214	-2.08929	1.56287
N	-0.831997	0.650171	1.59291
C	-0.433267	1.90897	1.46912
N	0.335223	2.11575	0.326608
H	-0.662899	2.7037	2.15936
H	0.751017	2.97838	0.0142193
C	5.28953	0.798033	-1.0694
C	6.66226	0.54443	-0.515578
H	4.51799	0.536001	-0.336291
H	5.10306	0.174994	-1.9517
H	5.16044	1.84753	-1.35071
C	6.98822	-0.819998	-0.0931034
C	7.61266	1.50395	-0.385185
N	8.87239	1.23664	0.131023
H	7.43903	2.53232	-0.677385
N	8.29179	-0.990405	0.417133
C	9.28068	-0.0243615	0.560051
H	8.53856	-1.92619	0.715168
H	9.56267	1.96759	0.218071
O	10.4132	-0.25025	1.02069
O	6.20729	-1.79072	-0.159662
