30
  This energy is -0.000397686 and Call times are: 13155
C	0.393589	1.19342	0.582986
N	1.03953	0.616353	1.63076
C	1.06591	-0.735669	1.72123
C	-0.224279	0.355801	-0.369378
C	-0.121233	-1.02869	-0.155845
N	0.512529	-1.62964	0.873417
H	1.59337	-1.14279	2.57451
N	0.370089	2.54524	0.497106
H	0.831363	3.08461	1.21118
H	-0.0998907	3.00221	-0.266572
N	-0.950771	0.627957	-1.53428
C	-1.27678	-0.566408	-2.00978
N	-0.800426	-1.60573	-1.21507
H	-1.84545	-0.743133	-2.90763
H	-0.916379	-2.59517	-1.36393
C	3.62123	-0.175296	-2.30459
C	4.54806	-0.236477	-1.12448
H	3.76626	0.75399	-2.86744
H	2.5744	-0.180741	-1.97979
H	3.78029	-1.0205	-2.98104
C	4.45465	0.830764	-0.125149
C	5.46275	-1.22022	-0.93334
N	6.30518	-1.24753	0.168661
H	5.5851	-2.03878	-1.63195
N	5.35174	0.71427	0.956678
C	6.29572	-0.282476	1.17339
H	5.30428	1.44156	1.65967
H	6.97766	-1.9903	0.288727
O	7.05639	-0.319139	2.15621
O	3.65918	1.79024	-0.181679
