30
  This energy is -0.000616946 and Call times are: 1739
C	0.557193	-0.389101	-1.20713
N	1.10035	-1.54089	-0.731284
C	0.928012	-1.85681	0.575368
C	-0.165831	0.431377	-0.315832
C	-0.268427	-0.0139546	1.01239
N	0.259396	-1.15106	1.51296
H	1.38092	-2.78436	0.901824
N	0.7323	-0.0778378	-2.51396
H	1.25949	-0.707769	-3.09607
H	0.342539	0.767701	-2.89614
N	-0.831901	1.65052	-0.485848
C	-1.32356	1.93114	0.713486
N	-1.01288	0.957524	1.65911
H	-1.90201	2.80655	0.958063
H	-1.27043	0.943052	2.6328
C	6.9261	-0.612994	2.72167
C	6.87106	-0.452123	1.22952
H	5.93139	-0.488606	3.16494
H	7.56508	0.154179	3.17394
H	7.31193	-1.59754	3.00284
C	6.37442	0.818865	0.696298
C	7.25365	-1.41372	0.352088
N	7.19008	-1.23345	-1.02207
H	7.62991	-2.37582	0.677442
N	6.34824	0.905065	-0.711029
C	6.7343	-0.064916	-1.62845
H	6.00839	1.77545	-1.10134
H	7.48064	-1.96403	-1.65466
O	6.68272	0.0835529	-2.86182
O	5.99254	1.78132	1.39229
