30
  This energy is -0.00323892 and Call times are: 1279
C	-0.00426277	1.06479	-0.88614
N	-0.804369	0.462281	-1.80532
C	-1.25257	-0.793508	-1.56251
C	0.326425	0.353252	0.286348
C	-0.205466	-0.94066	0.412463
N	-1.00136	-1.56403	-0.482046
H	-1.88586	-1.22609	-2.32661
N	0.441109	2.32009	-1.13355
H	0.167343	2.77162	-1.99074
H	1.03486	2.79285	-0.4726
N	1.10843	0.681616	1.39968
C	1.04757	-0.39113	2.17711
N	0.265549	-1.40427	1.62879
H	1.53778	-0.495319	3.13084
H	0.067294	-2.30911	2.02446
C	4.89977	1.81028	-2.11356
C	4.9662	0.958967	-0.878134
H	4.40771	1.27279	-2.93233
H	5.90559	2.06245	-2.4687
H	4.35262	2.73963	-1.92872
C	5.67013	-0.322778	-0.967556
C	4.41312	1.30904	0.310343
N	4.49215	0.499004	1.43392
H	3.87894	2.24135	0.446491
N	5.69605	-1.07292	0.226302
C	5.13761	-0.735456	1.45343
H	6.17779	-1.96276	0.187127
H	4.07253	0.781493	2.30712
O	5.20121	-1.45161	2.46782
O	6.22084	-0.761273	-1.99761
