30
  This energy is -0.00131971 and Call times are: 9085
C	0.11008	-0.925562	-1.02482
N	-1.10628	-1.4947	-0.813573
C	-1.88787	-1.02031	0.186883
C	0.507973	0.139387	-0.189396
C	-0.398135	0.532735	0.809237
N	-1.61071	-0.0126488	1.04245
H	-2.8458	-1.50906	0.311522
N	0.887553	-1.40338	-2.02611
H	0.543142	-2.16623	-2.58561
H	1.793	-1.00318	-2.2075
N	1.66838	0.920674	-0.145609
C	1.46378	1.76443	0.856939
N	0.228616	1.57463	1.47096
H	2.15736	2.52199	1.18221
H	-0.155241	2.08624	2.2491
C	4.83247	-0.706102	-2.09426
C	5.64061	-0.42087	-0.860973
H	5.43487	-1.23378	-2.84264
H	4.498	0.224977	-2.56607
H	3.95305	-1.31472	-1.86306
C	6.85373	0.386981	-1.00964
C	5.31146	-0.867671	0.377152
N	6.08035	-0.586456	1.49723
H	4.42921	-1.46921	0.55845
N	7.56603	0.617868	0.185353
C	7.24889	0.171304	1.46268
H	8.40826	1.1744	0.105692
H	5.81457	-0.930249	2.40801
O	7.92868	0.416086	2.47455
O	7.26687	0.857618	-2.08871
