30
  This energy is 0.0001383 and Call times are: 11615
C	1.33728	-0.352602	-0.0799796
N	1.63318	0.499997	-1.09663
C	0.650483	1.28468	-1.60202
C	0.0136524	-0.383771	0.40727
C	-0.906952	0.481769	-0.206204
N	-0.64266	1.33792	-1.21583
H	0.940111	1.94471	-2.40981
N	2.32308	-1.13482	0.421705
H	3.24686	-1.06303	0.0279293
H	2.13556	-1.77611	1.17437
N	-0.601366	-1.12996	1.41911
C	-1.86318	-0.721703	1.41347
N	-2.10457	0.253496	0.449421
H	-2.63646	-1.08579	2.0694
H	-2.97618	0.717418	0.250258
C	12.2429	1.70842	1.95656
C	11.7752	0.657334	0.991191
H	11.3921	2.18939	2.45275
H	12.7873	2.50371	1.43455
H	12.8979	1.28314	2.7229
C	10.8876	1.07439	-0.0971803
C	12.1271	-0.650628	1.07061
N	11.6771	-1.5976	0.161991
H	12.7794	-1.02697	1.84905
N	10.4854	0.0402595	-0.967522
C	10.8323	-1.30416	-0.906178
H	9.87133	0.306365	-1.7275
H	11.9531	-2.56496	0.242088
O	10.4365	-2.16283	-1.71362
O	10.4899	2.24233	-0.282551
