30
  This energy is 0.000622164 and Call times are: 2585
C	-0.617559	0.636586	1.06415
N	-0.125235	1.87084	0.777271
C	0.683796	2.02054	-0.299717
C	-0.26325	-0.440168	0.22425
C	0.58282	-0.146669	-0.857899
N	1.08651	1.06691	-1.16725
H	1.04775	3.02361	-0.482572
N	-1.42581	0.492214	2.14176
H	-1.63927	1.3025	2.69986
H	-1.80605	-0.40859	2.38024
N	-0.593157	-1.80017	0.244692
C	0.0406187	-2.31206	-0.801814
N	0.768179	-1.35598	-1.50554
H	0.0138438	-3.34749	-1.09836
H	1.32892	-1.49585	-2.33053
C	7.0591	0.450833	-2.45882
C	6.24939	0.128878	-1.23565
H	8.05025	-0.0140257	-2.40468
H	7.22741	1.53066	-2.54276
H	6.56125	0.104235	-3.36946
C	6.78685	0.532082	0.0662536
C	5.05376	-0.511646	-1.26903
N	4.33013	-0.794596	-0.119614
H	4.59877	-0.837436	-2.19634
N	5.97854	0.20043	1.1732
C	4.75258	-0.454168	1.16356
H	6.33102	0.470047	2.0834
H	3.44267	-1.27228	-0.170284
O	4.09385	-0.713667	2.18564
O	7.87126	1.12551	0.235019
