30
  This energy is -0.00300901 and Call times are: 9658
C	-0.974408	0.0615741	-0.982736
N	-1.54872	1.20403	-0.521197
C	-1.03526	1.7963	0.584433
C	0.136587	-0.460515	-0.287411
C	0.567331	0.252549	0.843527
N	0.0178969	1.38775	1.32481
H	-1.53013	2.70287	0.908876
N	-1.4914	-0.52657	-2.08825
H	-2.28607	-0.101496	-2.53702
H	-1.08853	-1.37305	-2.45441
N	0.934841	-1.59066	-0.498196
C	1.82514	-1.55711	0.484211
N	1.64968	-0.462522	1.32668
H	2.60751	-2.28167	0.63807
H	2.19454	-0.21869	2.13802
C	7.08065	-1.35465	-2.08788
C	6.29681	-0.541928	-1.09768
H	6.9373	-2.42724	-1.91347
H	8.1553	-1.1649	-1.98535
H	6.78329	-1.12626	-3.11582
C	6.58293	-0.736299	0.325965
C	5.34297	0.357776	-1.44645
N	4.63598	1.0932	-0.506145
H	5.08127	0.550822	-2.47956
N	5.81307	0.0563845	1.20212
C	4.83228	0.982911	0.8687
H	5.99459	-0.0618384	2.1913
H	3.93092	1.7568	-0.790508
O	4.19162	1.6485	1.70084
O	7.43277	-1.52967	0.778641
