30
  This energy is -0.000891613 and Call times are: 14272
C	-0.0613424	-1.2036	0.683099
N	1.25248	-1.51107	0.517556
C	2.04721	-0.649835	-0.163277
C	-0.542885	0.00451949	0.136349
C	0.387681	0.805562	-0.545853
N	1.69612	0.52676	-0.725917
H	3.08428	-0.943067	-0.265932
N	-0.851536	-2.06776	1.3644
H	-0.444083	-2.91314	1.72896
H	-1.82815	-1.86845	1.50367
N	-1.81031	0.598216	0.131309
C	-1.64466	1.73055	-0.538956
N	-0.333391	1.90751	-0.972467
H	-2.41932	2.45164	-0.740669
H	0.0405045	2.68164	-1.49737
C	7.22615	0.572158	2.7389
C	7.13665	0.139476	1.30356
H	6.99622	1.63904	2.84035
H	8.24284	0.43614	3.1252
H	6.5351	0.0054921	3.37024
C	8.00513	0.808735	0.331839
C	6.30022	-0.831862	0.858801
N	6.24154	-1.2083	-0.475252
H	5.6318	-1.3668	1.52222
N	7.87209	0.356181	-0.997138
C	7.02383	-0.635341	-1.47557
H	8.46336	0.805254	-1.68572
H	5.61084	-1.93398	-0.781782
O	6.96136	-0.982464	-2.66784
O	8.81683	1.71472	0.60915
