30
  This energy is -0.000825523 and Call times are: 11725
C	1.12348	0.576577	-0.569556
N	1.00887	1.75889	0.0915585
C	-0.0218448	1.93085	0.954639
C	0.159845	-0.424985	-0.327373
C	-0.856645	-0.116051	0.591501
N	-0.995947	1.0472	1.26203
H	-0.0659251	2.89033	1.45414
N	2.15551	0.409668	-1.43118
H	2.80852	1.16539	-1.55788
H	2.26755	-0.454023	-1.93555
N	-0.00232897	-1.71965	-0.833741
C	-1.0919	-2.17806	-0.232419
N	-1.65045	-1.24902	0.641403
H	-1.51987	-3.15519	-0.383485
H	-2.47408	-1.3595	1.21064
C	9.51879	-0.860091	-2.63045
C	9.47665	-0.386935	-1.20574
H	8.96993	-0.174409	-3.28618
H	9.03572	-1.83878	-2.73145
H	10.5477	-0.940544	-2.99384
C	8.16337	-0.229359	-0.57576
C	10.5817	-0.0985174	-0.473223
N	10.5084	0.337141	0.841949
H	11.5826	-0.192791	-0.876234
N	8.19371	0.217539	0.761418
C	9.31121	0.518788	1.53084
H	7.29661	0.333342	1.21662
H	11.3451	0.545379	1.36637
O	9.25979	0.909736	2.71001
O	7.07321	-0.460112	-1.13689
