30
  This energy is -0.00324774 and Call times are: 7608
C	0.601346	-1.2426	0.115542
N	1.33389	-1.13607	-1.02468
C	1.23055	-0.00749566	-1.76797
C	-0.238756	-0.168529	0.477419
C	-0.251542	0.942206	-0.382305
N	0.463701	1.07615	-1.51926
H	1.83515	0.02525	-2.66542
N	0.708195	-2.37272	0.854991
H	1.32675	-3.10183	0.539745
H	0.178926	-2.48163	1.70406
N	-1.10045	0.0305877	1.56217
C	-1.6192	1.23405	1.3585
N	-1.14055	1.83201	0.195749
H	-2.3328	1.71975	2.00319
H	-1.38169	2.73789	-0.172819
C	6.76465	-0.602928	2.49568
C	6.11756	-0.455977	1.14842
H	6.29699	0.064606	3.22855
H	7.82355	-0.323127	2.45302
H	6.69066	-1.63066	2.86384
C	6.13584	0.868011	0.521431
C	5.51973	-1.47611	0.48294
N	4.93023	-1.30698	-0.76154
H	5.47012	-2.4794	0.887932
N	5.51205	0.937964	-0.741373
C	4.89425	-0.0915106	-1.44142
H	5.5132	1.84421	-1.19318
H	4.4916	-2.08158	-1.23687
O	4.36257	0.0461914	-2.55689
O	6.65118	1.88639	1.02532
