30
  This energy is -0.00641099 and Call times are: 10403
C	0.389561	0.947807	-0.932167
N	1.43526	0.227136	-1.41715
C	1.69088	-0.994808	-0.889551
C	-0.387993	0.389756	0.104343
C	-0.0140426	-0.885383	0.559537
N	1.01751	-1.62368	0.0980259
H	2.5345	-1.52575	-1.31199
N	0.138232	2.16867	-1.46291
H	0.732496	2.50812	-2.2013
H	-0.628555	2.72633	-1.12533
N	-1.5037	0.861993	0.805098
C	-1.79338	-0.107867	1.66204
N	-0.923853	-1.19028	1.55729
H	-2.60424	-0.0880922	2.37116
H	-0.936393	-2.0421	2.09475
C	6.85749	1.57876	2.2685
C	6.94068	0.80477	0.984193
H	7.74768	2.20315	2.40666
H	6.8165	0.902517	3.13013
H	5.9735	2.22325	2.28936
C	8.07425	-0.106205	0.806616
C	6.02901	0.901892	-0.0159779
N	6.13504	0.172448	-1.19136
H	5.16771	1.55534	0.0490732
N	8.09313	-0.801928	-0.419883
C	7.17216	-0.71889	-1.45743
H	8.86825	-1.43747	-0.563732
H	5.44377	0.261942	-1.92107
O	7.25502	-1.36675	-2.5154
O	8.97899	-0.287693	1.6463
