30
  This energy is 0.000708174 and Call times are: 9962
C	-0.28999	-1.13011	0.746854
N	-0.721986	-1.87196	-0.307237
C	-0.716618	-1.31923	-1.5447
C	0.147302	0.189363	0.505746
C	0.100774	0.638232	-0.824432
N	-0.322473	-0.0743711	-1.88991
H	-1.07048	-1.95314	-2.34781
N	-0.297327	-1.68719	1.98175
H	-0.622301	-2.63452	2.08446
H	0.0163452	-1.16371	2.78205
N	0.639696	1.18912	1.35244
C	0.88346	2.21553	0.548735
N	0.575514	1.93782	-0.780442
H	1.27564	3.16916	0.861065
H	0.671996	2.55069	-1.57396
C	6.30321	2.14854	-1.70856
C	6.70732	1.11053	-0.701258
H	5.21841	2.30474	-1.69481
H	6.55705	1.82617	-2.72495
H	6.79537	3.10622	-1.51394
C	6.12947	-0.229551	-0.830374
C	7.57339	1.34366	0.316828
N	7.92618	0.362076	1.23164
H	8.03692	2.31035	0.47086
N	6.54958	-1.15622	0.146087
C	7.434	-0.940769	1.1963
H	6.1624	-2.08925	0.0756904
H	8.57285	0.559951	1.98065
O	7.7588	-1.81113	2.02266
O	5.32371	-0.573963	-1.71846
