30
  This energy is -0.00117544 and Call times are: 9702
C	0.646621	0.139859	1.21711
N	1.88008	-0.180031	0.743486
C	2.0207	-0.480944	-0.570485
C	-0.438832	0.14475	0.315926
C	-0.154261	-0.186324	-1.01915
N	1.0583	-0.507716	-1.51773
H	3.02356	-0.728269	-0.894764
N	0.511339	0.439861	2.53128
H	1.32753	0.417583	3.12029
H	-0.388632	0.680648	2.91204
N	-1.8005	0.422872	0.481335
C	-2.32211	0.262421	-0.72741
N	-1.3708	-0.106474	-1.67482
H	-3.3615	0.395671	-0.977768
H	-1.51796	-0.285887	-2.655
C	5.85908	-2.38824	1.44463
C	5.77923	-1.2077	0.519777
H	4.92272	-2.51298	2.00057
H	6.64716	-2.24559	2.19295
H	6.06364	-3.31222	0.895388
C	5.51019	0.106259	1.1093
C	5.94141	-1.28992	-0.82479
N	5.86126	-0.179085	-1.65212
H	6.14244	-2.22881	-1.32594
N	5.44784	1.17153	0.187342
C	5.61037	1.11161	-1.19163
H	5.26291	2.08923	0.573384
H	5.98564	-0.265798	-2.6498
O	5.5413	2.09881	-1.94434
O	5.34206	0.318279	2.32722
