30
  This energy is -1.1878e-05 and Call times are: 9349
C	0.544008	-1.19394	0.444517
N	0.571962	-0.840341	1.75686
C	0.120002	0.385926	2.11581
C	0.0433093	-0.264564	-0.491392
C	-0.393047	0.970809	0.0150347
N	-0.377478	1.34946	1.31063
H	0.164691	0.616194	3.17271
N	0.996905	-2.4208	0.0908765
H	1.34138	-3.03621	0.809343
H	0.989219	-2.71192	-0.872501
N	-0.116672	-0.318473	-1.88077
C	-0.637486	0.85825	-2.20164
N	-0.82621	1.67889	-1.09277
H	-0.89565	1.17159	-3.1996
H	-1.20403	2.61249	-1.07711
C	9.72702	-2.15959	-0.915856
C	9.05619	-0.950786	-0.329153
H	9.73326	-2.11	-2.0108
H	9.18514	-3.07455	-0.650143
H	10.7595	-2.25227	-0.565628
C	7.66423	-0.690848	-0.705025
C	9.66459	-0.0901546	0.525301
N	9.0163	1.01862	1.04989
H	10.6911	-0.222254	0.844573
N	7.09376	0.458535	-0.120077
C	7.69624	1.35338	0.756194
H	6.1318	0.657248	-0.366169
H	9.49036	1.64436	1.68397
O	7.12703	2.35034	1.23367
O	6.99202	-1.40187	-1.47907
