30
  This energy is -0.00516383 and Call times are: 6786
C	-1.27042	-0.448942	0.321755
N	-1.07186	-0.439879	1.66658
C	0.132596	-0.0487518	2.14943
C	-0.208919	-0.0488674	-0.517011
C	0.986665	0.332739	0.113844
N	1.21278	0.351858	1.44451
H	0.237004	-0.0602054	3.22693
N	-2.47613	-0.840727	-0.155857
H	-3.19118	-1.11412	0.498019
H	-2.65401	-0.858234	-1.14629
N	-0.0928376	0.0517933	-1.90815
C	1.14483	0.484203	-2.10834
N	1.84399	0.671421	-0.918886
H	1.5867	0.677641	-3.07172
H	2.79268	0.991302	-0.80821
C	5.32953	-0.921599	2.41643
C	6.02531	-0.563809	1.13451
H	4.27091	-1.14257	2.23782
H	5.35638	-0.0836484	3.12248
H	5.79158	-1.7922	2.89162
C	5.52002	0.585606	0.379578
C	7.09048	-1.2426	0.638962
N	7.71108	-0.886134	-0.54958
H	7.51462	-2.10104	1.14518
N	6.21694	0.86789	-0.813447
C	7.30862	0.187986	-1.34027
H	5.88443	1.6588	-1.35131
H	8.50225	-1.40691	-0.897694
O	7.8741	0.496773	-2.40365
O	4.55111	1.29218	0.723859
