30
  This energy is -0.000487938 and Call times are: 9217
C	-0.767418	0.364992	-1.09402
N	0.124652	1.26863	-1.57954
C	1.28829	1.46513	-0.913075
C	-0.441628	-0.332427	0.0882777
C	0.797323	-0.0330028	0.678506
N	1.70207	0.857769	0.220106
H	1.96234	2.19531	-1.34265
N	-1.9291	0.172235	-1.76388
H	-2.09938	0.703225	-2.60212
H	-2.60964	-0.489696	-1.42979
N	-1.12516	-1.30347	0.829033
C	-0.314837	-1.58106	1.84156
N	0.863809	-0.840934	1.80059
H	-0.519168	-2.29433	2.62274
H	1.63112	-0.871832	2.45241
C	4.75864	-1.08096	-1.70207
C	5.85307	-0.673836	-0.757663
H	4.90717	-0.629764	-2.68988
H	3.78368	-0.730215	-1.34457
H	4.71621	-2.16809	-1.81868
C	6.03561	0.756394	-0.497827
C	6.67825	-1.55255	-0.134879
N	7.68075	-1.14351	0.732607
H	6.599	-2.62273	-0.28157
N	7.07909	1.07101	0.397073
C	7.9358	0.189774	1.04595
H	7.22295	2.05439	0.591197
H	8.28205	-1.81656	1.18404
O	8.83776	0.542696	1.82558
O	5.34669	1.6648	-1.00454
