30
  This energy is -0.00332736 and Call times are: 691
C	-0.215495	1.35554	0.187396
N	-0.876194	1.21749	1.36743
C	-1.06404	-0.0259787	1.87274
C	0.248225	0.192763	-0.463209
C	-0.0136749	-1.03353	0.169754
N	-0.666127	-1.20136	1.3395
H	-1.59579	-0.0789727	2.81427
N	-0.0303082	2.60061	-0.313461
H	-0.38691	3.38858	0.201831
H	0.454902	2.73562	-1.18481
N	0.94568	-0.0031448	-1.66072
C	1.09925	-1.31775	-1.74511
N	0.537689	-1.99144	-0.663691
H	1.59799	-1.83427	-2.54836
H	0.523937	-2.98514	-0.499418
C	4.67521	0.384019	-2.37842
C	5.27704	0.180904	-1.01755
H	4.93252	-0.44547	-3.04711
H	5.068	1.29348	-2.84744
H	3.58518	0.462803	-2.32489
C	6.73395	0.0572693	-0.925311
C	4.55012	0.105716	0.125631
N	5.1373	-0.0829268	1.3684
H	3.47024	0.188891	0.129917
N	7.23452	-0.131562	0.379473
C	6.51074	-0.211693	1.56324
H	8.23957	-0.219422	0.466488
H	4.57502	-0.135507	2.20472
O	7.02406	-0.380231	2.68306
O	7.5149	0.108595	-1.89693
