30
  This energy is -4.1427e-05 and Call times are: 7696
C	0.872586	-0.630921	-0.87153
N	1.08935	0.463076	-1.64887
C	0.461507	1.62339	-1.33851
C	-0.000766994	-0.510385	0.229874
C	-0.58562	0.749521	0.438692
N	-0.389604	1.85209	-0.315034
H	0.669233	2.46289	-1.98977
N	1.50254	-1.78835	-1.18596
H	2.11334	-1.80615	-1.98609
H	1.3626	-2.61549	-0.629937
N	-0.42519	-1.42431	1.2012
C	-1.24661	-0.728838	1.97609
N	-1.38092	0.593374	1.5609
H	-1.76564	-1.1169	2.83678
H	-1.9437	1.31492	1.98191
C	7.84706	0.0519124	-2.1862
C	7.0581	-0.0056246	-0.909618
H	7.70963	1.01707	-2.68719
H	7.5056	-0.71466	-2.8913
H	8.91547	-0.0956978	-2.0019
C	5.60663	0.17483	-0.993681
C	7.61206	-0.214226	0.311262
N	6.85448	-0.261644	1.47259
H	8.6775	-0.355126	0.44562
N	4.92568	0.109731	0.239503
C	5.47071	-0.10248	1.50024
H	3.92103	0.231768	0.204669
H	7.28982	-0.418278	2.36941
O	4.80365	-0.147474	2.54853
O	4.97478	0.373287	-2.05101
