30
  This energy is -0.00147978 and Call times are: 3608
C	-0.518589	0.12984	-1.27798
N	-1.28462	1.2166	-0.99475
C	-1.27134	1.71872	0.264039
C	0.26076	-0.430895	-0.244274
C	0.181911	0.18779	1.01431
N	-0.568505	1.26604	1.32484
H	-1.89901	2.58405	0.43514
N	-0.535362	-0.368243	-2.53774
H	-1.11431	0.0799959	-3.22875
H	0.0207456	-1.17174	-2.77865
N	1.13495	-1.52332	-0.209
C	1.5714	-1.55994	1.04282
N	1.02708	-0.547025	1.82792
H	2.26876	-2.28076	1.43636
H	1.20126	-0.365499	2.80328
C	7.81885	1.28463	1.64059
C	6.93771	0.616191	0.624607
H	8.036	0.607823	2.47497
H	7.32145	2.1603	2.07323
H	8.7662	1.60596	1.1973
C	5.62917	0.129302	1.06852
C	7.28445	0.438826	-0.6751
N	6.44672	-0.183543	-1.58927
H	8.23568	0.773939	-1.06999
N	4.85178	-0.487762	0.0667234
C	5.18531	-0.680476	-1.26864
H	3.94304	-0.831792	0.351731
H	6.72725	-0.303736	-2.55115
O	4.4443	-1.23615	-2.09812
O	5.19059	0.229256	2.23223
