30
  This energy is 2.2798e-05 and Call times are: 12077
C	-0.497631	-0.88525	-0.942193
N	-0.599364	-1.93728	-0.0872318
C	-0.228946	-1.77026	1.20573
C	-0.00850395	0.340708	-0.444051
C	0.339682	0.377171	0.916264
N	0.249671	-0.649523	1.78803
H	-0.330092	-2.63945	1.84316
N	-0.869173	-1.05734	-2.23359
H	-1.21009	-1.95899	-2.52407
H	-0.805614	-0.297759	-2.89078
N	0.212178	1.5835	-1.04873
C	0.682408	2.34928	-0.0733687
N	0.780443	1.67048	1.13836
H	0.965047	3.3837	-0.177592
H	1.1069	2.0321	2.01998
C	13.1352	-0.339002	1.06835
C	14.431	-0.058731	0.362807
H	13.1607	0.0390923	2.09684
H	12.9544	-1.41774	1.13911
H	12.2901	0.122354	0.548624
C	15.6582	-0.612739	0.940308
C	14.528	0.675555	-0.774007
N	15.7416	0.916497	-1.40161
H	13.6617	1.11425	-1.25386
N	16.8391	-0.313065	0.230096
C	16.9628	0.435597	-0.93428
H	17.6996	-0.686343	0.611735
H	15.788	1.46596	-2.24676
O	18.0436	0.658905	-1.50686
O	15.707	-1.3029	1.97851
