30
  This energy is -0.000523398 and Call times are: 10530
C	-0.331156	1.28319	-0.403484
N	0.474421	1.91072	0.493907
C	1.21411	1.16182	1.34764
C	-0.362404	-0.127265	-0.407188
C	0.453727	-0.780685	0.530891
N	1.26261	-0.185251	1.43275
H	1.83782	1.71162	2.041
N	-1.06851	2.03628	-1.25467
H	-0.999448	3.03914	-1.19903
H	-1.67438	1.60132	-1.93042
N	-1.06793	-1.05279	-1.18469
C	-0.684109	-2.23567	-0.723867
N	0.236512	-2.13073	0.315419
H	-1.029	-3.18737	-1.09274
H	0.673434	-2.88065	0.826606
C	9.0289	-1.55031	-0.0846546
C	7.7256	-0.826933	0.0985887
H	9.87643	-0.868407	0.0498712
H	9.11293	-1.95243	-1.10084
H	9.13021	-2.37609	0.626033
C	7.4431	0.307961	-0.783797
C	6.79984	-1.16419	1.0314
N	5.60457	-0.474606	1.17515
H	6.94409	-1.99132	1.71559
N	6.20401	0.942912	-0.559781
C	5.24142	0.615902	0.387873
H	5.98812	1.73023	-1.15888
H	4.93147	-0.744749	1.8768
O	4.16649	1.22502	0.52723
O	8.20755	0.719629	-1.67974
