30
  This energy is -0.00145667 and Call times are: 3652
C	-0.471018	-1.0926	0.709506
N	0.713867	-1.37194	1.31456
C	1.78802	-0.590261	1.04622
C	-0.531427	0.0041949	-0.175793
C	0.655544	0.731214	-0.364377
N	1.84493	0.477898	0.221596
H	2.70607	-0.856629	1.55442
N	-1.54172	-1.87695	0.981072
H	-1.43025	-2.64444	1.62303
H	-2.43248	-1.69585	0.549028
N	-1.57307	0.543361	-0.939431
C	-1.02397	1.57126	-1.57252
N	0.323744	1.73167	-1.26172
H	-1.53838	2.22598	-2.25625
H	0.955028	2.43436	-1.61145
C	7.15318	1.12523	-2.33646
C	6.65322	0.669196	-0.995756
H	6.32578	1.22623	-3.04823
H	7.84384	0.390643	-2.76631
H	7.66924	2.08732	-2.26366
C	5.93856	-0.608059	-0.930363
C	6.82555	1.3709	0.15265
N	6.35069	0.921468	1.37632
H	7.34391	2.32159	0.176331
N	5.49593	-0.977997	0.35646
C	5.66044	-0.276849	1.54511
H	4.99941	-1.85789	0.424801
H	6.49147	1.46162	2.21701
O	5.24034	-0.668025	2.64802
O	5.71374	-1.34805	-1.90936
