30
  This energy is 0.00122314 and Call times are: 13199
C	-0.99961	0.950714	-0.126309
N	-1.67666	0.294294	-1.10549
C	-1.19954	-0.893863	-1.54988
C	0.176018	0.363801	0.387301
C	0.559093	-0.870771	-0.16234
N	-0.091975	-1.54521	-1.13364
H	-1.77675	-1.37384	-2.32994
N	-1.48065	2.13802	0.314438
H	-2.32566	2.50103	-0.0951688
H	-1.00214	2.64806	1.03817
N	1.08069	0.772615	1.37386
C	1.98688	-0.194824	1.41581
N	1.72081	-1.21546	0.506875
H	2.84312	-0.215551	2.06941
H	2.25766	-2.05317	0.349914
C	9.57815	-1.50958	0.604645
C	8.29287	-0.849427	0.195166
H	9.69103	-1.50222	1.69488
H	10.4413	-0.968606	0.200044
H	9.6227	-2.5461	0.256983
C	8.08507	0.54643	0.58861
C	7.31812	-1.47081	-0.515236
N	6.14105	-0.832154	-0.877806
H	7.4062	-2.50087	-0.838186
N	6.85926	1.10642	0.173284
C	5.84743	0.490586	-0.553705
H	6.69477	2.07085	0.434492
H	5.43058	-1.31582	-1.40663
O	4.78826	1.05106	-0.885277
O	8.89967	1.23021	1.24086
