30
  This energy is -0.00258903 and Call times are: 1168
C	-0.0498862	1.16998	-0.740068
N	-0.879758	0.679142	-1.69843
C	-1.30554	-0.604024	-1.60335
C	0.333995	0.318215	0.317052
C	-0.179652	-0.988954	0.294751
N	-1.00413	-1.50359	-0.642032
H	-1.96428	-0.943878	-2.3924
N	0.372892	2.45321	-0.839667
H	0.0609449	3.00736	-1.62018
H	0.987642	2.84561	-0.146119
N	1.15618	0.511921	1.43301
C	1.13677	-0.652902	2.0668
N	0.343721	-1.59845	1.42206
H	1.66537	-0.871867	2.97971
H	0.170254	-2.54961	1.70454
C	5.49319	2.4614	-1.25678
C	5.2138	1.23759	-0.432362
H	4.83827	2.49874	-2.1349
H	6.52112	2.44986	-1.63708
H	5.34757	3.37637	-0.674671
C	5.3665	-0.0699567	-1.07532
C	4.82953	1.27533	0.868346
N	4.57871	0.12521	1.60262
H	4.69743	2.20693	1.40476
N	5.08933	-1.1772	-0.247148
C	4.69491	-1.16317	1.08544
H	5.18874	-2.09129	-0.671393
H	4.29395	0.179183	2.56924
O	4.4672	-2.18584	1.75492
O	5.71294	-0.24308	-2.26131
