30
  This energy is -0.000742987 and Call times are: 3697
C	-0.394319	0.767349	1.08385
N	0.838637	1.28499	1.32868
C	1.87399	0.917543	0.535039
C	-0.543348	-0.134264	0.00902073
C	0.611634	-0.429733	-0.733768
N	1.84712	0.0679732	-0.514584
H	2.83326	1.35898	0.773739
N	-1.42594	1.1378	1.88002
H	-1.25094	1.78576	2.63043
H	-2.35053	0.772022	1.72432
N	-1.65062	-0.826689	-0.494329
C	-1.17137	-1.5225	-1.51661
N	0.192965	-1.32029	-1.70735
H	-1.7491	-2.17851	-2.14639
H	0.782081	-1.73294	-2.41252
C	5.03076	1.89883	-1.53428
C	5.72307	0.759572	-0.842744
H	5.73252	2.71524	-1.74018
H	4.24276	2.32018	-0.899519
H	4.58231	1.57846	-2.47953
C	6.37442	1.03266	0.440828
C	5.77876	-0.502301	-1.33822
N	6.42725	-1.53336	-0.673982
H	5.31932	-0.773475	-2.2808
N	7.00559	-0.0785527	1.03708
C	7.07563	-1.37806	0.549281
H	7.46229	0.0876879	1.92545
H	6.45493	-2.46406	-1.06306
O	7.65304	-2.31105	1.13412
O	6.39664	2.14551	1.00443
