30
  This energy is 4.3625e-05 and Call times are: 12253
C	-0.434788	-0.385073	-1.25766
N	-0.800913	-1.64068	-0.886896
C	-0.633844	-2.0187	0.403854
C	0.105826	0.474194	-0.277987
C	0.224504	-0.0439868	1.02218
N	-0.129953	-1.28447	1.41933
H	-0.941594	-3.02823	0.64506
N	-0.603816	-0.0120729	-2.54904
H	-0.995636	-0.674706	-3.19788
H	-0.342511	0.91062	-2.85443
N	0.569245	1.79369	-0.333108
C	0.957584	2.06201	0.906279
N	0.771681	0.985099	1.76905
H	1.37373	2.999	1.23739
H	0.987168	0.941661	2.75204
C	20.025	1.20283	0.108966
C	18.602	0.727484	0.0417952
H	20.6108	0.801435	-0.726003
H	20.5114	0.851152	1.02609
H	20.0825	2.29515	0.0812373
C	18.3613	-0.7174	0.0696082
C	17.5321	1.55763	-0.0429815
N	16.2288	1.08603	-0.103702
H	17.6378	2.63525	-0.0680282
N	17.0047	-1.09688	0.00343819
C	15.894	-0.266147	-0.0837138
H	16.8153	-2.09147	0.0213502
H	15.4492	1.72376	-0.166359
O	14.7212	-0.675333	-0.138571
O	19.254	-1.58568	0.145467
