30
  This energy is 0.000356931 and Call times are: 9041
C	-0.316879	-0.228395	-1.32908
N	0.892401	0.156742	-1.8163
C	1.8478	0.570627	-0.948688
C	-0.525886	-0.180311	0.0653251
C	0.548474	0.268488	0.851042
N	1.75866	0.656783	0.396239
H	2.79155	0.865907	-1.38936
N	-1.26851	-0.641274	-2.20045
H	-1.05385	-0.651407	-3.18402
H	-2.17367	-0.932615	-1.87074
N	-1.62894	-0.500521	0.865078
C	-1.22607	-0.249643	2.10348
N	0.0843115	0.21833	2.15422
H	-1.82368	-0.383476	2.98988
H	0.612687	0.47679	2.97191
C	7.0423	-1.89872	-2.04031
C	7.35473	-0.861549	-1.00007
H	6.22437	-1.56644	-2.68991
H	6.70744	-2.83199	-1.57313
H	7.91563	-2.1149	-2.66304
C	6.28119	-0.464859	-0.0854467
C	8.56989	-0.274206	-0.860979
N	8.82609	0.681808	0.111258
H	9.4071	-0.520178	-1.50258
N	6.63984	0.511957	0.866332
C	7.87575	1.12684	1.0276
H	5.91265	0.800956	1.50905
H	9.73865	1.10442	0.194872
O	8.11886	1.98447	1.89437
O	5.12231	-0.926524	-0.106392
