30
  This energy is -0.0017303 and Call times are: 14117
C	-0.75677	0.138121	1.15206
N	-0.181806	1.30637	1.5428
C	0.793592	1.84739	0.772896
C	-0.311014	-0.463352	-0.0437172
C	0.70681	0.202943	-0.745933
N	1.29585	1.36208	-0.383137
H	1.21716	2.77755	1.12987
N	-1.73131	-0.398565	1.92512
H	-2.00249	0.0823895	2.76698
H	-2.17623	-1.26235	1.66277
N	-0.687628	-1.63734	-0.706114
C	0.0867134	-1.6753	-1.78214
N	0.950521	-0.585858	-1.85707
H	0.0711995	-2.44953	-2.53121
H	1.63053	-0.389691	-2.57381
C	4.35178	1.06259	1.76126
C	5.32318	0.627722	0.701687
H	4.87237	1.29132	2.69832
H	3.63909	0.261913	1.99012
H	3.79123	1.94892	1.44907
C	6.14999	-0.550749	0.973679
C	5.47704	1.2625	-0.48756
N	6.38452	0.835005	-1.44598
H	4.89888	2.1389	-0.753497
N	7.04028	-0.90565	-0.0607846
C	7.21518	-0.27181	-1.28521
H	7.6217	-1.71776	0.106093
H	6.48065	1.32409	-2.32342
O	8.02424	-0.644328	-2.15272
O	6.10681	-1.22266	2.02403
