30
  This energy is -0.00029093 and Call times are: 6082
C	-0.795315	-0.706627	0.887234
N	-0.393301	-1.9356	0.46761
C	0.517563	-2.02209	-0.532235
C	-0.244239	0.430962	0.260681
C	0.690084	0.19959	-0.762319
N	1.10793	-1.00716	-1.19975
H	0.802678	-3.02389	-0.827472
N	-1.70599	-0.625551	1.88697
H	-2.05952	-1.47717	2.29113
H	-2.02347	0.269649	2.21972
N	-0.442638	1.80289	0.453848
C	0.354724	2.38256	-0.433327
N	1.06444	1.45948	-1.1968
H	0.461848	3.4458	-0.570442
H	1.72821	1.65022	-1.93003
C	4.905	1.73091	-0.6703
C	5.96045	0.803104	-0.14056
H	4.34545	1.26041	-1.48696
H	5.35631	2.63884	-1.08666
H	4.19892	2.02106	0.113613
C	6.9828	0.325274	-1.07484
C	6.01947	0.384687	1.14877
N	7.00845	-0.473819	1.60674
H	5.29642	0.698642	1.89153
N	7.9434	-0.541906	-0.514554
C	8.02395	-0.983683	0.800708
H	8.65992	-0.884347	-1.14285
H	7.03119	-0.770935	2.57088
O	8.90459	-1.75245	1.22423
O	7.04219	0.633168	-2.28241
