30
  This energy is -0.00172282 and Call times are: 2996
C	0.305233	1.35047	-0.0458137
N	1.57632	1.20943	0.415188
C	2.03172	-0.0313744	0.714932
C	-0.488548	0.193476	-0.192935
C	0.106776	-1.03058	0.153906
N	1.36445	-1.20128	0.613568
H	3.05019	-0.0869481	1.07782
N	-0.145223	2.59286	-0.344004
H	0.473488	3.3767	-0.215992
H	-1.08132	2.72997	-0.687269
N	-1.80367	0.00172737	-0.631731
C	-1.99397	-1.30825	-0.550252
N	-0.870183	-1.98286	-0.0804971
H	-2.90502	-1.82069	-0.811306
H	-0.766369	-2.97372	0.0678813
C	5.508	2.29175	1.42538
C	5.9515	1.17555	0.523801
H	6.0855	2.29431	2.35698
H	4.45741	2.16806	1.71235
H	5.62423	3.26597	0.940996
C	5.8555	-0.194673	1.03337
C	6.43394	1.36459	-0.730169
N	6.83583	0.3109	-1.53829
H	6.53174	2.34999	-1.16891
N	6.28754	-1.19497	0.13814
C	6.78456	-1.02569	-1.14867
H	6.22975	-2.14993	0.469967
H	7.19143	0.477066	-2.46796
O	7.14789	-1.9607	-1.88327
O	5.43086	-0.504456	2.16486
