30
  This energy is -0.00415971 and Call times are: 2026
C	0.833143	1.09823	0.137105
N	0.470973	1.68016	-1.03689
C	-0.449914	1.06453	-1.81779
C	0.231768	-0.127241	0.493385
C	-0.707534	-0.656466	-0.406978
N	-1.08659	-0.102243	-1.57802
H	-0.701932	1.57057	-2.74108
N	1.75404	1.7176	0.914082
H	2.14436	2.59111	0.600669
H	2.04285	1.31205	1.78874
N	0.382049	-0.963129	1.60585
C	-0.448451	-1.97187	1.3787
N	-1.13416	-1.83813	0.174299
H	-0.596658	-2.81377	2.03445
H	-1.81467	-2.46868	-0.21802
C	7.43995	-2.23019	-0.800441
C	6.7696	-0.932072	-0.452661
H	6.77667	-2.86392	-1.40032
H	7.67919	-2.80091	0.104232
H	8.3643	-2.064	-1.36187
C	5.51556	-0.990501	0.302566
C	7.25824	0.285831	-0.797432
N	6.61385	1.46742	-0.46061
H	8.17931	0.401773	-1.35534
N	4.93808	0.262021	0.596493
C	5.41935	1.52017	0.254417
H	4.07036	0.245082	1.11821
H	6.99738	2.36155	-0.728537
O	4.8523	2.58648	0.549942
O	4.96108	-2.0425	0.679937
