30
  This energy is -0.0024609 and Call times are: 7137
C	-0.00293726	-1.12367	0.810177
N	-1.12888	-0.785523	1.49281
C	-1.76223	0.3716	1.18172
C	0.459666	-0.251183	-0.197358
C	-0.291393	0.91507	-0.418233
N	-1.41147	1.27677	0.242656
H	-2.6533	0.592557	1.7555
N	0.626443	-2.28133	1.12492
H	0.243076	-2.85871	1.85516
H	1.46207	-2.5593	0.637706
N	1.55938	-0.307152	-1.06128
C	1.47079	0.800752	-1.78487
N	0.369093	1.57835	-1.43807
H	2.15928	1.09238	-2.56056
H	0.0879342	2.45834	-1.8395
C	5.0067	-2.15098	1.67148
C	5.26123	-1.08671	0.642902
H	4.46437	-1.7414	2.53143
H	5.9498	-2.55068	2.0616
H	4.4242	-2.97792	1.2542
C	6.03227	0.08988	1.05222
C	4.81888	-1.1538	-0.638013
N	5.07113	-0.152449	-1.56457
H	4.24378	-1.99408	-1.00717
N	6.23559	1.05067	0.0401812
C	5.79292	1.00379	-1.27641
H	6.76645	1.87249	0.301354
H	4.73134	-0.225344	-2.51197
O	6.012	1.89365	-2.11668
O	6.49512	0.274082	2.19607
