30
  This energy is 3.8579e-05 and Call times are: 11813
C	-0.0578076	-0.0058576	-1.38407
N	1.14209	0.607213	-1.56423
C	1.86944	0.958483	-0.475919
C	-0.495991	-0.251037	-0.0656466
C	0.355377	0.16415	0.971568
N	1.55041	0.774198	0.823486
H	2.81652	1.44336	-0.675895
N	-0.78102	-0.354976	-2.47514
H	-0.409996	-0.150826	-3.38852
H	-1.673	-0.81015	-2.37467
N	-1.65308	-0.848009	0.447804
C	-1.50008	-0.792604	1.76401
N	-0.301803	-0.189769	2.13737
H	-2.20678	-1.16418	2.48738
H	0.0409346	-0.0314035	3.0712
C	15.6317	-1.26444	-2.22593
C	15.1089	-0.433719	-1.08927
H	14.8077	-1.69131	-2.80911
H	16.2188	-2.11155	-1.85288
H	16.2622	-0.672117	-2.89595
C	14.2461	-1.08915	-0.103203
C	15.3897	0.883603	-0.925654
N	14.89	1.62341	0.136381
H	16.02	1.42995	-1.61652
N	13.7895	-0.254241	0.937519
C	14.0632	1.0953	1.12551
H	13.1914	-0.686952	1.6307
H	15.1133	2.60243	0.236533
O	13.6225	1.76979	2.07245
O	13.9122	-2.29079	-0.137522
