30
  This energy is 0.000274341 and Call times are: 5857
C	0.524257	-0.466823	-1.19426
N	1.67102	-0.952143	-0.648851
C	1.86789	-0.824846	0.68602
C	-0.415725	0.151296	-0.342954
C	-0.0868176	0.217002	1.02106
N	1.04225	-0.255316	1.59054
H	2.79706	-1.22824	1.06805
N	0.332233	-0.596549	-2.52905
H	1.04369	-1.04849	-3.07966
H	-0.506327	-0.247544	-2.96254
N	-1.66293	0.738872	-0.584008
C	-2.07392	1.14834	0.608599
N	-1.15891	0.858407	1.61725
H	-3.00616	1.65143	0.805017
H	-1.24132	1.06657	2.59933
C	8.0925	0.511445	-2.58544
C	7.58724	0.418864	-1.17421
H	7.38537	0.0503681	-3.28457
H	9.03813	-0.0311955	-2.69815
H	8.25023	1.55186	-2.88528
C	7.32761	-0.914976	-0.626617
C	7.35878	1.4965	-0.3821
N	6.89116	1.37672	0.918603
H	7.52925	2.51033	-0.722916
N	6.85533	-0.932064	0.702045
C	6.61413	0.156686	1.53151
H	6.66931	-1.84411	1.10077
H	6.72894	2.19367	1.48837
O	6.19549	0.0635496	2.69855
O	7.4959	-1.98381	-1.24778
