30
  This energy is -0.00289199 and Call times are: 13633
C	0.0979203	-1.18597	0.709169
N	1.10283	-1.70339	-0.0461506
C	1.58616	-0.975883	-1.08248
C	-0.400667	0.0920599	0.379903
C	0.189939	0.737853	-0.718804
N	1.18747	0.249784	-1.4862
H	2.3854	-1.43451	-1.65074
N	-0.381719	-1.91712	1.74393
H	0.0191244	-2.8228	1.92468
H	-1.12523	-1.56156	2.32157
N	-1.40542	0.886382	0.944168
C	-1.41798	1.98473	0.200954
N	-0.472566	1.94903	-0.820605
H	-2.0747	2.82613	0.347639
H	-0.289049	2.65788	-1.51231
C	4.56286	2.04155	0.905559
C	5.32758	0.832124	0.449561
H	4.50383	2.79029	0.107249
H	5.06673	2.52708	1.74921
H	3.54595	1.77842	1.212
C	6.71081	1.0242	0.0066463
C	4.81119	-0.422331	0.424905
N	5.54482	-1.51951	-0.00268576
H	3.79652	-0.635481	0.738091
N	7.37212	-0.150168	-0.408332
C	6.86461	-1.44355	-0.442313
H	8.32978	-0.040454	-0.718589
H	5.13839	-2.44314	-0.0117958
O	7.51088	-2.43525	-0.8228
O	7.30308	2.12196	-0.0197814
