30
  This energy is 0.000834274 and Call times are: 13677
C	-0.995636	-0.671821	-0.690214
N	-1.07867	-1.70953	0.184051
C	-0.269495	-1.71793	1.27125
C	-0.0662446	0.35633	-0.426587
C	0.71104	0.223843	0.735866
N	0.65084	-0.793408	1.62117
H	-0.376503	-2.56693	1.93442
N	-1.80664	-0.668108	-1.7754
H	-2.4479	-1.43348	-1.90417
H	-1.76892	0.085967	-2.44087
N	0.257659	1.53308	-1.11158
C	1.20826	2.09481	-0.37693
N	1.52244	1.34525	0.753607
H	1.7002	3.02589	-0.604611
H	2.20591	1.55948	1.46182
C	9.15448	1.19387	-1.72336
C	8.1974	0.395986	-0.885027
H	9.91455	1.67523	-1.09728
H	8.63251	1.99983	-2.25191
H	9.65956	0.563469	-2.46142
C	7.44212	1.10368	0.151851
C	7.99441	-0.937296	-1.03362
N	7.10222	-1.64578	-0.241851
H	8.51886	-1.52176	-1.77956
N	6.56178	0.297551	0.902735
C	6.33748	-1.0675	0.768925
H	6.02927	0.766508	1.62518
H	6.96854	-2.63755	-0.371699
O	5.54111	-1.71433	1.47128
O	7.53508	2.32465	0.390976
