30
  This energy is 4.6774e-05 and Call times are: 12495
C	-0.722675	0.84585	-0.825415
N	-1.74516	1.03526	0.0502049
C	-1.70125	0.414959	1.25442
C	0.344997	0.00771705	-0.440742
C	0.265234	-0.573077	0.835713
N	-0.735732	-0.403671	1.7254
H	-2.54032	0.599933	1.91305
N	-0.771306	1.46812	-2.02782
H	-1.56284	2.0532	-2.23939
H	-0.0297479	1.34785	-2.69754
N	1.5193	-0.383487	-1.09407
C	2.13116	-1.18142	-0.229318
N	1.41671	-1.3319	0.956254
H	3.07549	-1.67191	-0.397905
H	1.67075	-1.88265	1.76046
C	17.9761	1.3012	0.711258
C	19.2242	0.498952	0.478453
H	17.2937	1.21856	-0.142477
H	18.2108	2.36647	0.818409
H	17.4499	0.968394	1.61106
C	20.0404	0.827951	-0.692832
C	19.6357	-0.50875	1.28844
N	20.7948	-1.23137	1.04503
H	19.0807	-0.804215	2.17033
N	21.1975	0.0380571	-0.853666
C	21.6386	-0.9976	-0.0385648
H	21.7767	0.248514	-1.65717
H	21.0801	-1.97679	1.6625
O	22.675	-1.65285	-0.244888
O	19.7749	1.72864	-1.51432
