30
  This energy is -0.0014549 and Call times are: 5812
C	0.296845	0.138812	-1.34597
N	0.239128	1.49702	-1.34968
C	-0.0487006	2.14472	-0.194482
C	0.0534417	-0.540881	-0.133895
C	-0.233496	0.251959	0.989535
N	-0.297596	1.60005	1.01614
H	-0.0820565	3.22521	-0.253255
N	0.584927	-0.503886	-2.50326
H	0.748168	0.0418652	-3.33338
H	0.634894	-1.50864	-2.53283
N	0.0373706	-1.90045	0.198037
C	-0.252742	-1.92365	1.49194
N	-0.427197	-0.64842	2.02299
H	-0.349077	-2.81411	2.09073
H	-0.651718	-0.404958	2.97426
C	6.53472	-1.57673	-1.77311
C	5.67565	-0.642667	-0.97002
H	6.25158	-2.62016	-1.59288
H	7.58761	-1.48662	-1.48207
H	6.45116	-1.37346	-2.84499
C	5.68109	-0.790839	0.487516
C	4.89844	0.325934	-1.51654
N	4.11542	1.17319	-0.745906
H	4.84701	0.490364	-2.58583
N	4.85398	0.116136	1.18175
C	4.05045	1.11478	0.644512
H	4.8426	0.0315814	2.19077
H	3.54551	1.88638	-1.17593
O	3.34436	1.8807	1.32327
O	6.34906	-1.6384	1.11364
