30
  This energy is -0.000132284 and Call times are: 13489
C	0.359347	-1.32638	-0.174989
N	-0.532104	-1.81963	0.725062
C	-1.34453	-0.957744	1.38383
C	0.400321	0.06806	-0.385287
C	-0.496862	0.847482	0.363435
N	-1.39181	0.38662	1.26279
H	-2.03502	-1.40307	2.08877
N	1.16918	-2.19204	-0.830852
H	1.08838	-3.17599	-0.633603
H	1.83947	-1.85779	-1.50309
N	1.18279	0.873039	-1.22112
C	0.76489	2.10835	-0.979788
N	-0.251045	2.15211	-0.0286663
H	1.1497	2.99724	-1.45155
H	-0.729513	2.96638	0.321542
C	12.883	1.88183	0.96609
C	11.7689	0.99288	0.492661
H	13.5799	2.1032	0.149599
H	13.47	1.38885	1.74953
H	12.4986	2.82685	1.36163
C	12.1264	-0.313617	-0.0656024
C	10.4563	1.33081	0.552727
N	9.4504	0.486009	0.106193
H	10.122	2.28005	0.953072
N	11.0349	-1.09864	-0.491129
C	9.68452	-0.774177	-0.439713
H	11.2593	-2.00613	-0.880427
H	8.48076	0.760041	0.16152
O	8.77335	-1.52159	-0.836003
O	13.292	-0.744412	-0.17719
