30
  This energy is -0.00292343 and Call times are: 7206
C	0.250079	-0.639216	-1.20329
N	1.06127	0.333135	-1.69783
C	1.30437	1.43188	-0.942512
C	-0.306224	-0.461526	0.0809718
C	0.0274608	0.723909	0.75656
N	0.828853	1.70564	0.291642
H	1.95664	2.17478	-1.38376
N	0.0102206	-1.73552	-1.96219
H	0.439119	-1.79965	-2.87078
H	-0.585858	-2.47257	-1.62403
N	-1.15901	-1.25469	0.857187
C	-1.33361	-0.56112	1.97404
N	-0.638381	0.645233	1.96763
H	-1.93953	-0.871266	2.80916
H	-0.611238	1.34204	2.69449
C	8.79583	1.72699	1.2755
C	7.94683	0.664943	0.637773
H	8.23442	2.26376	2.04888
H	9.10213	2.47749	0.537723
H	9.69423	1.29952	1.7309
C	6.70474	1.08348	-0.0167786
C	8.26448	-0.654154	0.63425
N	7.45759	-1.61106	0.035829
H	9.16661	-1.03223	1.09932
N	5.95469	0.038714	-0.595203
C	6.25938	-1.31719	-0.611327
H	5.09197	0.305628	-1.05333
H	7.7155	-2.58662	0.0463644
O	5.54564	-2.18485	-1.14391
O	6.29837	2.26113	-0.0842618
