30
  This energy is -0.00429755 and Call times are: 2442
C	0.530087	1.27803	0.0683936
N	-0.668197	1.91661	0.00206491
C	-1.80071	1.17838	-0.0942004
C	0.542844	-0.132294	0.0339768
C	-0.702507	-0.774011	-0.0676239
N	-1.90656	-0.167476	-0.13515
H	-2.72691	1.7367	-0.143848
N	1.65919	2.02048	0.16453
H	1.57955	3.02391	0.18417
H	2.56131	1.5772	0.215403
N	1.58316	-1.06734	0.0820356
C	0.976173	-2.24436	0.0108877
N	-0.408133	-2.12656	-0.081251
H	1.47258	-3.20052	0.0210576
H	-1.08458	-2.87006	-0.146321
C	5.95281	2.73278	0.0542547
C	5.54127	1.29426	0.183603
H	5.56556	3.16789	-0.874245
H	7.04408	2.82419	0.00780936
H	5.589	3.32909	0.896451
C	5.95579	0.36653	-0.871806
C	4.81037	0.808423	1.21834
N	4.44609	-0.527274	1.3081
H	4.47102	1.43811	2.03161
N	5.53732	-0.967874	-0.690342
C	4.78949	-1.48793	0.359357
H	5.81307	-1.62653	-1.40836
H	3.90191	-0.864828	2.08802
O	4.4565	-2.68225	0.452206
O	6.62803	0.683819	-1.8738
