30
  This energy is 0.000696359 and Call times are: 10951
C	0.685991	-1.19892	0.105014
N	1.80453	-0.657752	0.656435
C	1.84641	0.678734	0.877558
C	-0.387927	-0.341692	-0.214698
C	-0.213195	1.02338	0.0664859
N	0.884157	1.58875	0.612706
H	2.75996	1.05722	1.31825
N	0.649116	-2.53535	-0.114004
H	1.45061	-3.09027	0.13753
H	-0.164617	-2.96581	-0.520758
N	-1.64703	-0.577471	-0.77854
C	-2.21583	0.619274	-0.834746
N	-1.39271	1.62563	-0.336342
H	-3.20253	0.820346	-1.21783
H	-1.59664	2.60994	-0.271921
C	6.05851	0.702942	-1.17447
C	7.44639	0.440777	-0.664091
H	5.41578	1.09191	-0.376344
H	5.59002	-0.223597	-1.52581
H	6.06572	1.42342	-1.99794
C	7.6007	-0.506554	0.442772
C	8.55982	1.02969	-1.16844
N	9.82886	0.765779	-0.673727
H	8.51817	1.73903	-1.98585
N	8.92813	-0.707711	0.874237
C	10.0823	-0.116874	0.373925
H	9.05799	-1.35902	1.63866
H	10.6421	1.21658	-1.06582
O	11.2251	-0.344475	0.807595
O	6.6613	-1.11422	0.994889
