30
  This energy is -0.00100716 and Call times are: 6009
C	0.753677	-0.990818	-0.607686
N	1.49234	-0.140275	-1.36862
C	1.26148	1.19199	-1.27586
C	-0.225932	-0.447137	0.249717
C	-0.362046	0.950895	0.248806
N	0.35586	1.81936	-0.494539
H	1.87725	1.82392	-1.90319
N	0.988302	-2.32162	-0.704063
H	1.70274	-2.64354	-1.33615
H	0.458147	-2.9767	-0.153874
N	-1.13076	-1.03565	1.14067
C	-1.79548	-0.0138858	1.66321
N	-1.37135	1.21283	1.15927
H	-2.58033	-0.0938613	2.39694
H	-1.71872	2.12774	1.39775
C	8.86874	1.1631	1.0512
C	7.73518	0.413415	0.412107
H	8.74404	1.20659	2.1393
H	8.89721	2.20126	0.700778
H	9.83227	0.694297	0.829635
C	6.37658	0.921488	0.618194
C	7.89845	-0.702862	-0.341678
N	6.82921	-1.3728	-0.918512
H	8.874	-1.13222	-0.534126
N	5.35894	0.172517	-0.00801299
C	5.5018	-0.97198	-0.783438
H	4.41163	0.506117	0.121263
H	6.97626	-2.20143	-1.47537
O	4.55266	-1.58173	-1.30615
O	6.09019	1.93467	1.28753
