30
  This energy is -0.000912081 and Call times are: 13743
C	-0.0859821	-1.17848	-0.723062
N	1.0413	-0.963309	-1.45176
C	1.75187	0.171491	-1.2416
C	-0.46916	-0.20646	0.224942
C	0.357178	0.923344	0.342115
N	1.4806	1.16393	-0.366566
H	2.64031	0.292864	-1.84821
N	-0.792708	-2.31434	-0.936909
H	-0.463643	-2.96714	-1.62912
H	-1.63146	-2.50234	-0.413415
N	-1.5485	-0.129026	1.11258
C	-1.3743	1.0216	1.74867
N	-0.235962	1.70051	1.32213
H	-2.0242	1.41257	2.51387
H	0.10844	2.58835	1.65035
C	7.25958	-0.555425	-2.03439
C	8.12866	-0.338877	-0.828886
H	7.78568	-1.14431	-2.79454
H	7.00112	0.399547	-2.50621
H	6.33363	-1.07525	-1.77049
C	9.40816	0.348009	-1.0224
C	7.7965	-0.742156	0.423297
N	8.62267	-0.526764	1.51686
H	6.86688	-1.25507	0.637328
N	10.1755	0.519322	0.148277
C	9.85655	0.115444	1.43929
H	11.0641	0.992077	0.0375145
H	8.35337	-0.836212	2.43885
O	10.5873	0.302223	2.42775
O	9.83103	0.768263	-2.11837
