30
  This energy is -0.000208295 and Call times are: 11194
C	1.27809	0.0514299	-0.531867
N	1.91273	0.1213	0.668306
C	1.17223	0.116538	1.80342
C	-0.130681	-0.0233687	-0.543794
C	-0.775079	-0.0196309	0.704308
N	-0.172459	0.0487221	1.91028
H	1.72744	0.173959	2.73104
N	2.02279	0.0565166	-1.66357
H	3.02492	0.111865	-1.58438
H	1.58244	0.00589281	-2.56713
N	-1.06189	-0.104112	-1.58552
C	-2.2393	-0.147891	-0.976668
N	-2.12537	-0.0998832	0.410194
H	-3.19308	-0.213327	-1.47344
H	-2.8699	-0.118691	1.08837
C	10.2259	1.28076	-0.252719
C	8.89335	0.589823	-0.300451
H	10.9596	0.677018	0.293705
H	10.1519	2.23572	0.280148
H	10.6123	1.47224	-1.25835
C	8.24493	0.2654	0.972617
C	8.25971	0.250834	-1.45133
N	7.02805	-0.38773	-1.46105
H	8.68188	0.460604	-2.42644
N	6.99742	-0.382088	0.857942
C	6.32989	-0.738812	-0.307702
H	6.53125	-0.615626	1.72602
H	6.5765	-0.629692	-2.33047
O	5.22622	-1.31091	-0.330682
O	8.71916	0.521613	2.0978
