30
  This energy is -0.00154355 and Call times are: 7049
C	-0.278489	-1.31339	0.341278
N	-1.26486	-1.00872	1.22577
C	-1.58247	0.292626	1.43184
C	0.374929	-0.256595	-0.326991
C	-0.052226	1.04596	-0.0205438
N	-1.02726	1.37862	0.851713
H	-2.37453	0.479223	2.14589
N	0.0352127	-2.61569	0.138841
H	-0.470545	-3.32124	0.648739
H	0.76063	-2.87336	-0.509448
N	1.40563	-0.233613	-1.27356
C	1.59332	1.054	-1.5299
N	0.737795	1.87417	-0.799112
H	2.31875	1.45014	-2.22098
H	0.686683	2.87997	-0.81805
C	5.06582	-0.71347	-1.72671
C	6.28775	-0.448885	-0.894669
H	4.70988	0.207822	-2.20203
H	4.24124	-1.07964	-1.10432
H	5.26739	-1.45279	-2.50775
C	6.17522	0.521993	0.196719
C	7.48431	-1.05585	-1.09659
N	8.59511	-0.788752	-0.30942
H	7.63743	-1.78288	-1.88466
N	7.35735	0.724238	0.938577
C	8.5924	0.115231	0.750629
H	7.3021	1.39149	1.69827
H	9.47466	-1.25335	-0.47939
O	9.5954	0.345119	1.44851
O	5.1357	1.14758	0.4876
