30
  This energy is -0.00036298 and Call times are: 1916
C	1.08092	0.252314	-0.828848
N	0.503585	1.29928	-1.47586
C	-0.751857	1.67361	-1.12861
C	0.344591	-0.402315	0.180929
C	-0.945967	0.0872858	0.44126
N	-1.54465	1.12318	-0.183774
H	-1.16385	2.51253	-1.67497
N	2.33599	-0.11794	-1.17966
H	2.80598	0.392232	-1.90933
H	2.79045	-0.888958	-0.719336
N	0.644449	-1.48577	1.01464
C	-0.441762	-1.64338	1.75907
N	-1.43665	-0.718102	1.45458
H	-0.568464	-2.39419	2.5213
H	-2.34657	-0.633231	1.87818
C	4.89498	1.71242	1.75098
C	5.49826	0.666478	0.857958
H	4.58991	2.59168	1.172
H	5.62536	2.06501	2.48829
H	4.02095	1.32608	2.28396
C	6.68093	1.0344	0.0754488
C	5.01123	-0.594018	0.735985
N	5.59232	-1.53749	-0.0988975
H	4.14087	-0.932498	1.2846
N	7.19768	0.0078808	-0.741806
C	6.71669	-1.28839	-0.882891
H	8.01563	0.240488	-1.29159
H	5.21148	-2.46909	-0.172537
O	7.22769	-2.14346	-1.62696
O	7.22643	2.15626	0.0960176
