30
  This energy is 0.000273785 and Call times are: 4293
C	-0.27518	-1.22721	-0.580742
N	-0.472224	-0.734485	-1.83233
C	-0.3469	0.598962	-2.03983
C	0.0528109	-0.324746	0.452865
C	0.151132	1.03157	0.101055
N	-0.0387058	1.54937	-1.13102
H	-0.514236	0.937939	-3.05429
N	-0.401622	-2.56081	-0.378542
H	-0.637855	-3.14956	-1.16031
H	-0.26198	-2.95599	0.536464
N	0.312263	-0.506338	1.81616
C	0.560861	0.713672	2.27295
N	0.477169	1.68381	1.27771
H	0.80308	0.956848	3.2942
H	0.622277	2.67594	1.37371
C	5.14328	2.19691	1.73185
C	5.21724	0.94016	0.912979
H	4.1216	2.3712	2.0885
H	5.41493	3.07179	1.13004
H	5.8108	2.14891	2.5975
C	4.37752	0.853383	-0.284407
C	6.01443	-0.114253	1.21898
N	6.05938	-1.2621	0.440983
H	6.65987	-0.117048	2.08873
N	4.49403	-0.35149	-1.00787
C	5.30223	-1.44338	-0.71433
H	3.92228	-0.432878	-1.83966
H	6.66081	-2.03341	0.6894
O	5.3523	-2.47754	-1.40274
O	3.60272	1.74941	-0.676054
