30
  This energy is -0.00414155 and Call times are: 6496
C	-0.475988	1.08275	0.721198
N	-0.687062	1.8751	-0.363097
C	-0.397003	1.39162	-1.59556
C	0.0383405	-0.214758	0.515504
C	0.295248	-0.590211	-0.813426
N	0.0959713	0.1737	-1.90837
H	-0.583772	2.06352	-2.42363
N	-0.767523	1.57069	1.95095
H	-1.13217	2.50597	2.02762
H	-0.622289	1.00859	2.77305
N	0.360468	-1.25226	1.39794
C	0.801011	-2.22903	0.616449
N	0.783348	-1.88303	-0.732122
H	1.14079	-3.19249	0.958584
H	1.06699	-2.44969	-1.51509
C	7.30557	1.55823	1.465
C	6.38142	0.584553	0.791702
H	6.75114	2.42376	1.84563
H	8.04372	1.9504	0.755971
H	7.83791	1.09145	2.29925
C	5.59605	1.0633	-0.348644
C	6.23397	-0.707432	1.17895
N	5.37065	-1.58211	0.535157
H	6.78306	-1.1266	2.01313
N	4.749	0.100339	-0.935079
C	4.58152	-1.22637	-0.55645
H	4.19671	0.409866	-1.72538
H	5.27839	-2.53903	0.841989
O	3.81184	-2.02063	-1.12447
O	5.63819	2.22412	-0.803914
