30
  This energy is -0.0011989 and Call times are: 13919
C	0.558252	0.603128	1.11518
N	1.74247	0.90267	0.518538
C	1.93126	0.553257	-0.777267
C	-0.427606	-0.0616901	0.355926
C	-0.10207	-0.365745	-0.976214
N	1.06349	-0.0813169	-1.59488
H	2.89148	0.815304	-1.20312
N	0.37449	0.954526	2.4106
H	1.11957	1.42745	2.89515
H	-0.491053	0.746683	2.88021
N	-1.71966	-0.501181	0.666273
C	-2.16029	-1.05679	-0.45445
N	-1.22211	-1.00298	-1.48187
H	-3.13046	-1.50691	-0.584552
H	-1.31914	-1.35431	-2.42088
C	8.17789	0.277425	2.7246
C	7.72483	0.239299	1.29327
H	9.20028	0.665186	2.80053
H	8.19579	-0.730197	3.15561
H	7.52121	0.905301	3.33434
C	8.50621	-0.563924	0.349511
C	6.63758	0.904221	0.82778
N	6.24552	0.848342	-0.501886
H	6.01587	1.51579	1.47006
N	8.02798	-0.557236	-0.977117
C	6.91875	0.114946	-1.47645
H	8.55323	-1.10623	-1.64654
H	5.4326	1.35197	-0.824179
O	6.55631	0.0733459	-2.66507
O	9.52379	-1.22134	0.647638
