30
  This energy is -0.00213465 and Call times are: 6830
C	0.607309	1.24485	0.023661
N	0.779954	1.3279	-1.32221
C	0.355279	0.304463	-2.10264
C	-0.00943025	0.0913075	0.552186
C	-0.401907	-0.894429	-0.368306
N	-0.243817	-0.839816	-1.70779
H	0.517087	0.421827	-3.16663
N	1.03353	2.2705	0.799384
H	1.46602	3.06523	0.357866
H	0.919969	2.23874	1.79888
N	-0.32608	-0.293405	1.86008
C	-0.896013	-1.48363	1.72806
N	-0.968158	-1.89679	0.400373
H	-1.27054	-2.08603	2.53899
H	-1.35437	-2.75656	0.0450726
C	4.57762	0.38075	-2.55723
C	5.1981	0.00781617	-1.24142
H	5.07515	1.25656	-2.98947
H	3.52418	0.654798	-2.42861
H	4.63793	-0.443282	-3.27457
C	5.19408	1.01152	-0.174201
C	5.7596	-1.20094	-0.987333
N	6.32523	-1.51412	0.240194
H	5.79686	-1.98811	-1.73033
N	5.79149	0.598405	1.03457
C	6.37201	-0.632215	1.31767
H	5.79961	1.27684	1.78628
H	6.73694	-2.42058	0.405035
O	6.88199	-0.925952	2.4129
O	4.71147	2.15737	-0.277486
