30
  This energy is -0.00110643 and Call times are: 5039
C	-0.00653522	-0.171863	1.37457
N	0.0400358	1.1545	1.66896
C	0.071956	2.05134	0.653325
C	-0.0196823	-0.559127	0.0180277
C	0.0169512	0.472282	-0.934797
N	0.0634297	1.79569	-0.672861
H	0.108536	3.09375	0.943294
N	-0.0383014	-1.06429	2.39336
H	-0.0265439	-0.720649	3.33959
H	-0.0730243	-2.05287	2.20787
N	-0.063545	-1.81183	-0.6046
C	-0.0534801	-1.5389	-1.9024
N	-0.00526732	-0.171441	-2.1601
H	-0.079007	-2.27223	-2.69128
H	0.0110712	0.283797	-3.05848
C	8.67002	0.461737	0.47187
C	7.19404	0.395938	0.202501
H	9.2298	-0.108814	-0.278142
H	8.91002	0.0151417	1.44364
H	9.03124	1.49455	0.464611
C	6.56084	-0.925034	0.180466
C	6.41818	1.48643	-0.0206727
N	5.05615	1.39138	-0.267002
H	6.82082	2.49189	-0.0187467
N	5.17447	-0.917042	-0.0776164
C	4.36017	0.185244	-0.308818
H	4.71618	-1.81982	-0.0973022
H	4.50003	2.2175	-0.430129
O	3.13881	0.114288	-0.530519
O	7.15884	-2.00351	0.36979
