30
  This energy is -0.00762561 and Call times are: 11459
C	-0.862494	1.05732	-0.239183
N	-0.0256563	2.01529	0.240465
C	1.18854	1.64721	0.717
C	-0.428629	-0.284975	-0.220005
C	0.852889	-0.52832	0.301068
N	1.70483	0.400931	0.78363
H	1.81494	2.44911	1.08662
N	-2.07507	1.43041	-0.714397
H	-2.32261	2.40616	-0.699145
H	-2.7169	0.744772	-1.07614
N	-1.03506	-1.47793	-0.629833
C	-0.137802	-2.41681	-0.360909
N	1.02451	-1.89848	0.203924
H	-0.266286	-3.47008	-0.547643
H	1.84519	-2.40549	0.493791
C	5.34432	-0.944959	2.52734
C	4.98357	-0.270333	1.23499
H	6.14794	-1.67481	2.37596
H	4.49038	-1.50296	2.92833
H	5.66997	-0.219375	3.27882
C	4.52659	-1.11344	0.127411
C	5.05713	1.06993	1.037
N	4.71643	1.66241	-0.17037
H	5.38651	1.75103	1.81204
N	4.20407	-0.418632	-1.05661
C	4.27143	0.951042	-1.2825
H	3.88568	-0.982158	-1.83538
H	4.7795	2.66205	-0.293231
O	3.96905	1.49482	-2.35896
O	4.41417	-2.35495	0.178233
