30
  This energy is -0.00102627 and Call times are: 9680
C	0.896164	-0.847805	-0.630198
N	0.465206	-0.574753	-1.89027
C	-0.548717	0.308413	-2.06005
C	0.266209	-0.196837	0.451357
C	-0.771845	0.695089	0.135236
N	-1.22075	0.985815	-1.10417
H	-0.852552	0.489304	-3.08328
N	1.90995	-1.73131	-0.465832
H	2.31577	-2.16087	-1.28093
H	2.25133	-1.95434	0.454288
N	0.468261	-0.256557	1.835
C	-0.428421	0.580806	2.33866
N	-1.20655	1.18505	1.35475
H	-0.562576	0.789901	3.38701
H	-1.94894	1.85351	1.4836
C	6.22999	-2.51004	-0.376478
C	5.57711	-1.15771	-0.35674
H	5.65537	-3.22993	0.217628
H	7.22995	-2.46757	0.0703629
H	6.32067	-2.89442	-1.3969
C	5.38534	-0.509498	0.943045
C	5.15688	-0.506141	-1.4702
N	4.55652	0.743522	-1.41769
H	5.26741	-0.927065	-2.46201
N	4.76732	0.757038	0.891866
C	4.32913	1.44311	-0.234575
H	4.625	1.22341	1.77936
H	4.25233	1.20823	-2.26023
O	3.79001	2.56301	-0.201751
O	5.72559	-0.999153	2.03896
