30
  This energy is 5.383e-06 and Call times are: 12011
C	0.223163	-0.915691	-1.01525
N	0.363156	0.0142264	-1.99695
C	0.250339	1.32673	-1.67843
C	-0.0347383	-0.472005	0.298898
C	-0.127726	0.916304	0.491177
N	0.00652517	1.86204	-0.462621
H	0.370373	2.02458	-2.49736
N	0.336817	-2.22633	-1.33879
H	0.521684	-2.47509	-2.29667
H	0.23827	-2.93852	-0.634539
N	-0.225817	-1.15632	1.50475
C	-0.42903	-0.200347	2.40125
N	-0.380556	1.07427	1.84298
H	-0.613376	-0.362063	3.45035
H	-0.503215	1.956	2.31426
C	13.9999	2.18515	-1.62383
C	14.4197	1.13499	-0.635752
H	12.9176	2.15092	-1.79408
H	14.4724	2.01586	-2.59823
H	14.2662	3.18824	-1.27728
C	14.1309	-0.264178	-0.96025
C	15.0484	1.40856	0.535065
N	15.4232	0.414284	1.42713
H	15.292	2.4197	0.837278
N	14.5505	-1.19937	0.00824909
C	15.195	-0.943222	1.21264
H	14.3609	-2.17292	-0.195829
H	15.89	0.643018	2.29206
O	15.5365	-1.82434	2.0207
O	13.56	-0.649667	-2.00049
