30
  This energy is -0.00106923 and Call times are: 14316
C	0.366207	-0.195381	-1.32165
N	-0.166311	-1.44244	-1.41831
C	-0.781924	-1.97873	-0.336523
C	0.254382	0.489783	-0.0934743
C	-0.408329	-0.181351	0.947397
N	-0.946349	-1.4176	0.880973
H	-1.18811	-2.97362	-0.467842
N	0.980507	0.336211	-2.40581
H	1.02556	-0.206709	-3.25245
H	1.38455	1.25711	-2.3658
N	0.684833	1.75466	0.323255
C	0.289478	1.84128	1.58622
N	-0.377603	0.697392	2.01656
H	0.452183	2.68898	2.23096
H	-0.770632	0.521909	2.92723
C	4.652	-0.00288014	-1.52358
C	5.81476	-0.0881207	-0.576922
H	4.88136	-0.505462	-2.47026
H	4.42716	1.04046	-1.77312
H	3.75462	-0.459618	-1.09539
C	7.09261	0.483006	-1.00971
C	5.74804	-0.661974	0.650745
N	6.84179	-0.724716	1.50198
H	4.8358	-1.10303	1.03331
N	8.14271	0.370113	-0.0752402
C	8.09815	-0.212342	1.18584
H	9.03542	0.758526	-0.353861
H	6.76715	-1.1569	2.41083
O	9.07026	-0.275115	1.95848
O	7.28741	1.03726	-2.11035
