30
  This energy is -0.00197634 and Call times are: 5525
C	-0.640197	-0.66839	1.03074
N	-0.957324	-1.76559	0.293422
C	-0.58597	-1.81055	-1.00924
C	0.0651449	0.38098	0.404902
C	0.388439	0.205806	-0.950758
N	0.0873493	-0.870713	-1.70748
H	-0.86347	-2.70649	-1.54991
N	-1.01365	-0.62833	2.33239
H	-1.51536	-1.41175	2.71727
H	-0.793648	0.169987	2.9044
N	0.530843	1.61497	0.873161
C	1.12067	2.16857	-0.177798
N	1.06436	1.35936	-1.30947
H	1.59795	3.13444	-0.184619
H	1.43748	1.55621	-2.22415
C	6.26174	1.73537	1.92239
C	5.78557	0.671182	0.975714
H	5.41565	2.21895	2.42406
H	6.79613	2.52649	1.38393
H	6.92849	1.32167	2.68498
C	4.88207	1.07197	-0.105697
C	6.14366	-0.634408	1.06589
N	5.6855	-1.59375	0.174488
H	6.8076	-0.999052	1.84003
N	4.47255	0.02611	-0.958426
C	4.82552	-1.31617	-0.885833
H	3.84756	0.280884	-1.71333
H	5.96627	-2.55905	0.262326
O	4.42257	-2.18582	-1.67782
O	4.47743	2.23613	-0.29955
