30
  This energy is -0.00388 and Call times are: 4774
C	-1.25806	0.239966	-0.527961
N	-1.93548	-0.081711	0.605924
C	-1.23635	-0.469707	1.70024
C	0.15017	0.155551	-0.516322
C	0.749186	-0.260459	0.684152
N	0.103561	-0.585881	1.82409
H	-1.82458	-0.714293	2.57557
N	-1.9615	0.627198	-1.61909
H	-2.96579	0.665962	-1.55997
H	-1.48892	0.871716	-2.47336
N	1.11825	0.410998	-1.49429
C	2.27292	0.154146	-0.894584
N	2.10914	-0.256266	0.425798
H	3.24393	0.24412	-1.35263
H	2.82874	-0.506949	1.08454
C	7.58647	1.1519	-2.25827
C	6.87098	0.697058	-1.01867
H	7.29797	0.541768	-3.12193
H	8.67099	1.03851	-2.14713
H	7.36727	2.19996	-2.48358
C	7.06581	-0.689012	-0.585948
C	6.05802	1.4944	-0.280923
N	5.41088	1.04298	0.860252
H	5.8698	2.52819	-0.543441
N	6.36665	-1.05195	0.583729
C	5.52979	-0.254015	1.35478
H	6.48708	-2.006	0.901046
H	4.81095	1.65548	1.39249
O	4.94414	-0.645601	2.37927
O	7.78486	-1.52277	-1.17278
