30
  This energy is -0.0100771 and Call times are: 7718
C	0.781669	-0.818968	0.798321
N	1.80049	0.070721	0.934401
C	1.70379	1.27734	0.324841
C	-0.337565	-0.445841	0.0247234
C	-0.309602	0.834637	-0.552005
N	0.686392	1.73818	-0.43459
H	2.5424	1.94737	0.46564
N	0.88317	-2.02371	1.40959
H	1.70979	-2.22654	1.94732
H	0.145748	-2.70372	1.32776
N	-1.52268	-1.11448	-0.302829
C	-2.19157	-0.254779	-1.05939
N	-1.50413	0.942013	-1.24323
H	-3.15981	-0.434809	-1.49626
H	-1.80083	1.74519	-1.77377
C	8.39725	0.295246	1.77103
C	7.13843	0.126445	0.969592
H	8.8983	1.23663	1.51775
H	9.11189	-0.50566	1.54916
H	8.19003	0.289204	2.84539
C	7.25373	0.113785	-0.490867
C	5.90632	-0.0141167	1.52012
N	4.76201	-0.16807	0.7509
H	5.74907	-0.0136099	2.59173
N	6.03596	-0.0479733	-1.18335
C	4.76421	-0.193523	-0.642025
H	6.09243	-0.0597109	-2.19433
H	3.85634	-0.270932	1.18393
O	3.73092	-0.332443	-1.31946
O	8.32406	0.233038	-1.12074
