30
  This energy is -0.0014566 and Call times are: 12979
C	-0.352297	1.05703	-0.823162
N	-1.65938	1.07876	-0.450152
C	-2.09465	0.182165	0.468276
C	0.498518	0.0974679	-0.235192
C	-0.0815265	-0.772208	0.703015
N	-1.37396	-0.774385	1.09263
H	-3.14355	0.243206	0.729286
N	0.0778228	1.95533	-1.74154
H	-0.582069	2.61362	-2.12205
H	1.03951	1.96459	-2.03816
N	1.86026	-0.181568	-0.398489
C	2.09288	-1.19618	0.423294
N	0.952536	-1.59481	1.11566
H	3.04676	-1.67791	0.560462
H	0.872963	-2.33714	1.79183
C	4.89263	0.890146	-2.07248
C	5.7768	0.248342	-1.04206
H	5.40368	1.7299	-2.55728
H	3.98904	1.30292	-1.60932
H	4.59265	0.173457	-2.84294
C	6.26199	1.08394	0.0591944
C	6.14959	-1.05585	-1.07422
N	6.96853	-1.61858	-0.105958
H	5.82762	-1.72939	-1.85892
N	7.08678	0.421127	0.991444
C	7.48152	-0.911389	0.979222
H	7.43347	0.980088	1.76137
H	7.23204	-2.59163	-0.151658
O	8.21451	-1.42829	1.8403
O	5.99406	2.29366	0.205362
