30
  This energy is 0.00152054 and Call times are: 6430
C	1.2507	-0.324524	-0.499455
N	1.47559	-1.3431	0.37233
C	0.527209	-1.63931	1.29411
C	0.033958	0.383452	-0.406383
C	-0.861761	-0.0267444	0.59484
N	-0.666181	-1.03277	1.47338
H	0.757044	-2.45876	1.96323
N	2.2018	-0.0324025	-1.41894
H	3.0482	-0.577422	-1.43108
H	2.06492	0.715809	-2.07799
N	-0.490617	1.45681	-1.13548
C	-1.67496	1.68616	-0.584458
N	-1.95152	0.817374	0.467871
H	-2.36651	2.45164	-0.895169
H	-2.77976	0.790729	1.04051
C	9.68635	0.833687	-1.46222
C	8.50618	0.54087	-0.58081
H	9.38572	0.878959	-2.5153
H	10.4363	0.0378165	-1.38796
H	10.1588	1.78343	-1.19387
C	7.76674	-0.701465	-0.817925
C	8.0886	1.35892	0.41786
N	6.99318	1.05918	1.21477
H	8.58856	2.2919	0.647341
N	6.6708	-0.9162	0.0431741
C	6.22489	-0.0940852	1.07121
H	6.14532	-1.76937	-0.103019
H	6.70193	1.68393	1.95179
O	5.24534	-0.350649	1.79271
O	8.04575	-1.5376	-1.70087
