30
  This energy is -0.000445005 and Call times are: 14029
C	-1.32135	-0.287872	-0.300343
N	-1.79526	-0.0263649	0.946688
C	-0.926794	0.368839	1.90919
C	0.0606701	-0.13579	-0.539644
C	0.848818	0.280024	0.546147
N	0.407072	0.546664	1.79352
H	-1.35662	0.563825	2.8835
N	-2.19352	-0.682597	-1.25892
H	-3.16782	-0.771252	-1.02128
H	-1.8735	-0.883605	-2.1917
N	0.845555	-0.320821	-1.68358
C	2.0776	-0.0227912	-1.29354
N	2.1383	0.347713	0.0472451
H	2.95246	-0.0548101	-1.92152
H	2.95386	0.61715	0.573419
C	5.98171	0.130249	2.60394
C	6.62263	0.211971	1.24822
H	6.22343	-0.820095	3.09365
H	4.88931	0.167859	2.52247
H	6.31099	0.948946	3.2509
C	6.27907	-0.819139	0.265788
C	7.49797	1.18273	0.884459
N	8.07319	1.22971	-0.377194
H	7.79571	1.97482	1.56049
N	6.91448	-0.684826	-0.985971
C	7.81301	0.299185	-1.38085
H	6.69122	-1.38709	-1.68051
H	8.72185	1.96224	-0.624153
O	8.33545	0.353195	-2.50781
O	5.49044	-1.76358	0.472367
