30
  This energy is -0.000405106 and Call times are: 3520
C	0.104406	1.38094	-0.0338457
N	1.43502	1.41484	0.242521
C	2.09672	0.246637	0.427701
C	-0.533071	0.125076	-0.116304
C	0.270085	-1.00739	0.0969611
N	1.59151	-1.00473	0.372667
H	3.15396	0.330757	0.644983
N	-0.552445	2.55139	-0.218104
H	-0.0372315	3.41327	-0.145291
H	-1.53755	2.55938	-0.424041
N	-1.85732	-0.244861	-0.377802
C	-1.84968	-1.56993	-0.322821
N	-0.587802	-2.08529	-0.0386726
H	-2.70805	-2.20265	-0.476493
H	-0.326939	-3.0537	0.0547929
C	6.43461	0.836199	0.175698
C	7.82024	0.317574	-0.0821779
H	6.44547	1.92196	0.325407
H	6.01894	0.40117	1.09186
H	5.76136	0.606068	-0.655576
C	8.83936	0.548713	0.944645
C	8.17906	-0.349695	-1.20775
N	9.46908	-0.81605	-1.41564
H	7.47671	-0.554656	-2.00635
N	10.1179	0.0371031	0.641006
C	10.5084	-0.648389	-0.503193
H	10.838	0.185601	1.33735
H	9.71164	-1.30999	-2.26154
O	11.6604	-1.07175	-0.702054
O	8.64093	1.14646	2.02163
