30
  This energy is -0.00467414 and Call times are: 13655
C	-0.877341	-0.761488	0.754612
N	-0.14861	-1.90668	0.679994
C	1.0173	-1.89868	-0.0109772
C	-0.38596	0.391216	0.106399
C	0.835629	0.261806	-0.574773
N	1.58035	-0.860353	-0.665989
H	1.55754	-2.83645	-0.0387162
N	-2.04203	-0.774689	1.44648
H	-2.33535	-1.6317	1.88589
H	-2.60398	0.0570063	1.51999
N	-0.883251	1.69475	-0.00483425
C	0.0195078	2.33397	-0.736479
N	1.08183	1.51475	-1.10934
H	-0.0364163	3.37039	-1.02538
H	1.88581	1.76538	-1.66195
C	4.95403	1.88089	-1.81789
C	5.37516	0.751405	-0.922145
H	5.81111	2.28015	-2.37233
H	4.54873	2.71382	-1.23193
H	4.19429	1.55839	-2.53624
C	6.39045	1.02857	0.0970502
C	4.87028	-0.505308	-1.00397
N	5.28123	-1.52746	-0.160667
H	4.11792	-0.77911	-1.7334
N	6.74096	-0.0734612	0.904111
C	6.23836	-1.36757	0.838955
H	7.4413	0.0957883	1.61566
H	4.89059	-2.45443	-0.241132
O	6.59749	-2.29247	1.58828
O	6.93316	2.13746	0.277048
