30
  This energy is -0.000269978 and Call times are: 8689
C	1.19188	-0.319839	0.62941
N	1.55504	0.966817	0.875786
C	0.735337	1.96846	0.473749
C	-0.0284489	-0.557793	-0.0373271
C	-0.782421	0.570825	-0.398947
N	-0.447949	1.85806	-0.168003
H	1.07215	2.97332	0.694817
N	2.0147	-1.31744	1.03328
H	2.87174	-1.07838	1.50437
H	1.77377	-2.28011	0.865532
N	-0.673646	-1.73565	-0.431335
C	-1.7902	-1.32365	-1.01653
N	-1.90795	0.0636958	-1.02524
H	-2.54008	-1.96717	-1.44585
H	-2.65978	0.61363	-1.40853
C	13.1229	1.26796	0.772066
C	11.7899	0.620642	0.528029
H	13.2872	2.09838	0.0757845
H	13.9394	0.556292	0.603839
H	13.1995	1.65041	1.79437
C	11.5357	0.0577027	-0.800457
C	10.8127	0.528769	1.46478
N	9.59089	-0.075955	1.20702
H	10.9336	0.923332	2.46616
N	10.2665	-0.534896	-0.963607
C	9.25119	-0.640619	-0.0204362
H	10.0695	-0.930664	-1.87463
H	8.87953	-0.13204	1.92058
O	8.15222	-1.17991	-0.238
O	12.3474	0.075936	-1.74772
