30
  This energy is -0.000991042 and Call times are: 5591
C	1.25606	0.441409	-0.38275
N	1.56118	-0.662393	-1.11528
C	0.65351	-1.6653	-1.19988
C	0.00171948	0.495325	0.260741
C	-0.844785	-0.612615	0.0906814
N	-0.569503	-1.72067	-0.629464
H	0.947057	-2.52042	-1.7954
N	2.16674	1.44111	-0.301318
H	3.04363	1.33887	-0.785258
H	1.97044	2.27097	0.233187
N	-0.602479	1.46505	1.0691
C	-1.78546	0.951001	1.37766
N	-1.98556	-0.305531	0.812187
H	-2.52836	1.42904	1.99437
H	-2.7974	-0.895471	0.898691
C	6.57643	2.57942	0.149314
C	5.98797	1.22261	-0.111862
H	7.55527	2.49377	0.635038
H	5.94124	3.1559	0.83166
H	6.69647	3.14747	-0.778127
C	5.76561	0.340704	1.0367
C	5.65263	0.770243	-1.3463
N	5.11061	-0.489903	-1.55389
H	5.79027	1.36935	-2.23804
N	5.21128	-0.917546	0.723318
C	4.86032	-1.40213	-0.531103
H	5.049	-1.54341	1.50266
H	4.86915	-0.803804	-2.48207
O	4.37377	-2.5287	-0.731124
O	6.02955	0.634229	2.22023
