30
  This energy is -0.000593704 and Call times are: 13985
C	1.37521	-0.114604	0.121233
N	1.55329	1.10031	0.704625
C	0.471433	1.88497	0.929859
C	0.0656018	-0.507837	-0.226127
C	-0.965586	0.401088	0.0628861
N	-0.819367	1.61233	0.640549
H	0.669401	2.84157	1.39652
N	2.45981	-0.895163	-0.101758
H	3.36703	-0.554027	0.170598
H	2.36066	-1.79965	-0.531853
N	-0.443663	-1.66573	-0.825131
C	-1.75152	-1.45689	-0.894337
N	-2.12338	-0.221351	-0.37106
H	-2.46969	-2.14759	-1.30412
H	-3.05147	0.165342	-0.31007
C	10.6564	-0.962854	-0.337461
C	9.32014	-0.363495	-0.00498024
H	10.998	-0.632203	-1.32507
H	10.5941	-2.05629	-0.381141
H	11.413	-0.686553	0.403144
C	8.20066	-0.644615	-0.907276
C	9.0931	0.420163	1.07911
N	7.84551	0.959173	1.35808
H	9.87488	0.667925	1.78658
N	6.97501	-0.0525703	-0.538575
C	6.71888	0.752353	0.565085
H	6.18728	-0.233951	-1.14849
H	7.70156	1.53935	2.17111
O	5.60615	1.24144	0.826866
O	8.2751	-1.3478	-1.93517
