30
  This energy is -0.00411285 and Call times are: 2464
C	0.587621	0.968579	0.797238
N	0.890291	1.80993	-0.226768
C	0.555978	1.45228	-1.49056
C	-0.0645282	-0.246261	0.498525
C	-0.353518	-0.49342	-0.853665
N	-0.0656279	0.321807	-1.89034
H	0.819857	2.15822	-2.26777
N	0.923905	1.33068	2.05865
H	1.38834	2.21226	2.20258
H	0.713367	0.729471	2.83783
N	-0.50329	-1.30374	1.30357
C	-1.04374	-2.16675	0.453856
N	-0.980699	-1.72741	-0.865868
H	-1.48889	-3.10952	0.725494
H	-1.32027	-2.20098	-1.68747
C	5.0801	2.60629	0.930219
C	5.15527	1.23231	0.328605
H	5.99128	3.17675	0.716381
H	4.99823	2.55078	2.02183
H	4.22147	3.16424	0.544604
C	6.25564	0.360902	0.748424
C	4.2653	0.755503	-0.577779
N	4.36316	-0.519843	-1.11515
H	3.42893	1.34573	-0.931609
N	6.26859	-0.91443	0.146722
C	5.36943	-1.42407	-0.782445
H	7.0209	-1.53352	0.422722
H	3.68847	-0.851919	-1.7881
O	5.44527	-2.56462	-1.27161
O	7.13817	0.676487	1.5719
