30
  This energy is -0.00107473 and Call times are: 9768
C	0.474833	0.432905	1.22726
N	0.153105	1.73959	1.03454
C	-0.436862	2.10532	-0.129511
C	0.1792	-0.490246	0.202192
C	-0.43331	0.0221035	-0.953381
N	-0.764068	1.31232	-1.17272
H	-0.671744	3.15725	-0.231089
N	1.0644	0.0724405	2.39252
H	1.24778	0.781837	3.08297
H	1.31459	-0.887011	2.56503
N	0.377407	-1.87126	0.0909396
C	-0.105282	-2.18143	-1.10476
N	-0.609044	-1.07349	-1.78105
H	-0.11937	-3.17078	-1.53106
H	-1.02589	-1.05104	-2.69774
C	6.32121	1.05064	-2.59313
C	6.30882	0.652566	-1.1451
H	5.64375	0.417897	-3.17801
H	7.31953	0.918722	-3.02596
H	6.02088	2.09483	-2.72242
C	6.68969	-0.721895	-0.81014
C	5.96604	1.49084	-0.134786
N	5.96464	1.09147	1.19388
H	5.67432	2.51888	-0.311118
N	6.65718	-1.03082	0.56543
C	6.31001	-0.190341	1.61645
H	6.91703	-1.97595	0.819647
H	5.70571	1.73376	1.92789
O	6.3047	-0.535114	2.81102
O	7.02506	-1.58956	-1.64156
