30
  This energy is 0.000190324 and Call times are: 8425
C	-1.18455	0.708846	0.115758
N	-1.96089	-0.379757	0.361347
C	-1.38083	-1.60403	0.400512
C	0.197975	0.516021	-0.0886804
C	0.669306	-0.805459	-0.0211568
N	-0.0763821	-1.90441	0.220563
H	-2.04429	-2.43602	0.599647
N	-1.76918	1.93037	0.0776362
H	-2.76172	1.99798	0.232146
H	-1.22141	2.75538	-0.101865
N	1.24468	1.40567	-0.356629
C	2.32064	0.635711	-0.447996
N	2.03077	-0.712172	-0.253424
H	3.31945	0.985949	-0.649187
H	2.67349	-1.48749	-0.273538
C	15.6484	2.02286	1.93203
C	15.4201	0.984952	0.870866
H	16.4505	2.7104	1.63987
H	15.9664	1.55717	2.87191
H	14.742	2.60574	2.12152
C	16.5457	0.121273	0.505286
C	14.2354	0.803619	0.234881
N	14.0573	-0.165139	-0.742172
H	13.3631	1.40643	0.455773
N	16.2652	-0.831015	-0.496302
C	15.0618	-1.03499	-1.16089
H	17.0294	-1.43893	-0.764495
H	13.166	-0.280751	-1.20107
O	14.8885	-1.89919	-2.03784
O	17.684	0.183969	1.01206
