30
  This energy is -0.000110767 and Call times are: 12825
C	-1.20295	0.386235	0.568118
N	-0.76043	1.60036	0.990197
C	0.523807	1.95394	0.74009
C	-0.301798	-0.457129	-0.115271
C	1.00063	0.0323149	-0.308033
N	1.46794	1.2315	0.099091
H	0.824066	2.93069	1.09765
N	-2.48748	0.0375202	0.820586
H	-3.07831	0.68681	1.31347
H	-2.84482	-0.854351	0.520952
N	-0.440305	-1.73641	-0.665828
C	0.752305	-2.00922	-1.17783
N	1.66363	-0.973407	-0.990078
H	1.01537	-2.9214	-1.68722
H	2.62597	-0.941227	-1.28581
C	9.2503	-0.2272	-2.44153
C	10.1284	-0.0934858	-1.23056
H	8.50934	0.579681	-2.47778
H	8.68513	-1.16589	-2.41248
H	9.83726	-0.202631	-3.36464
C	9.48553	-0.109443	0.0858211
C	11.4774	0.0407966	-1.2875
N	12.2606	0.162481	-0.148845
H	12.0167	0.0604416	-2.22656
N	10.3654	0.0201316	1.18025
C	11.7478	0.158697	1.14651
H	9.94211	0.0114882	2.10013
H	13.2626	0.261197	-0.217084
O	12.4615	0.268405	2.15876
O	8.25812	-0.226532	0.276393
