30
  This energy is 0.00141837 and Call times are: 7093
C	-1.2188	0.171004	-0.635867
N	-1.29462	-1.10082	-1.10998
C	-0.289494	-1.96612	-0.831
C	-0.0916409	0.536762	0.129709
C	0.877142	-0.457432	0.344325
N	0.829138	-1.72656	-0.113036
H	-0.400055	-2.96542	-1.23254
N	-2.22606	1.03209	-0.917493
H	-3.0023	0.706396	-1.46973
H	-2.19905	1.98017	-0.580869
N	0.279658	1.73644	0.747576
C	1.44542	1.46876	1.32049
N	1.85531	0.155066	1.1087
H	2.03186	2.16919	1.89167
H	2.69847	-0.285846	1.43927
C	8.61745	-2.48705	-0.783428
C	7.95088	-1.2465	-0.26175
H	9.68188	-2.4979	-0.522115
H	8.56652	-2.52716	-1.87759
H	8.15063	-3.3906	-0.379802
C	8.46567	0.0484672	-0.713897
C	6.90369	-1.25823	0.600908
N	6.30996	-0.0931774	1.06457
H	6.47389	-2.1793	0.975045
N	7.79634	1.17251	-0.187383
C	6.72344	1.18512	0.695956
H	8.13585	2.0783	-0.486863
H	5.53177	-0.127833	1.70611
O	6.18208	2.2214	1.119
O	9.42016	0.197903	-1.50331
