30
  This energy is -0.00309673 and Call times are: 8160
C	-0.687266	-0.54914	-1.07011
N	0.424341	-0.936374	-1.75015
C	1.64305	-0.682905	-1.2141
C	-0.523247	0.102945	0.170147
C	0.795576	0.303152	0.610197
N	1.91693	-0.0697322	-0.0422609
H	2.49414	-1.0121	-1.7966
N	-1.90311	-0.804818	-1.61021
H	-1.94964	-1.27421	-2.49964
H	-2.74467	-0.530592	-1.13117
N	-1.44062	0.614861	1.09494
C	-0.689538	1.11144	2.06868
N	0.672306	0.950285	1.82768
H	-1.06338	1.59115	2.95799
H	1.43814	1.24136	2.41366
C	4.69124	-1.48703	1.78701
C	5.61009	-0.847444	0.785975
H	3.64221	-1.32345	1.51467
H	4.82633	-1.04368	2.78028
H	4.86818	-2.56437	1.85962
C	5.49363	0.597818	0.576099
C	6.53741	-1.53029	0.0685311
N	7.37163	-0.909027	-0.849593
H	6.67678	-2.5992	0.173782
N	6.38424	1.13535	-0.376028
C	7.34081	0.456921	-1.12187
H	6.32106	2.13312	-0.536881
H	8.05392	-1.43875	-1.37135
O	8.09463	1.00112	-1.94741
O	4.68493	1.33968	1.16958
