30
  This energy is -0.00247363 and Call times are: 941
C	0.718157	1.02255	-0.598052
N	0.339585	0.718322	-1.86777
C	-0.4917	-0.332704	-2.07064
C	0.226901	0.227155	0.458533
C	-0.627192	-0.831815	0.109065
N	-1.01998	-1.15749	-1.14067
H	-0.761467	-0.531018	-3.10017
N	1.54921	2.07408	-0.400582
H	1.86317	2.60068	-1.19915
H	1.84744	2.32444	0.527471
N	0.42124	0.274683	1.84375
C	-0.300029	-0.733238	2.31572
N	-0.95613	-1.43744	1.30959
H	-0.387264	-1.00075	3.35571
H	-1.55942	-2.23737	1.41327
C	4.4256	0.18037	1.81351
C	5.44602	0.138189	0.712418
H	4.73539	0.87019	2.60697
H	4.31714	-0.803898	2.28344
H	3.44748	0.497098	1.43906
C	6.80979	-0.269951	1.05878
C	5.17656	0.45565	-0.578913
N	6.14286	0.406599	-1.57325
H	4.19087	0.765214	-0.903965
N	7.71826	-0.288492	-0.0196551
C	7.46571	0.0319791	-1.34822
H	8.66708	-0.56792	0.197275
H	5.91784	0.647512	-2.52702
O	8.32191	-0.00790838	-2.2489
O	7.18791	-0.586525	2.2048
