30
  This energy is -0.00153587 and Call times are: 5244
C	1.16549	-0.379154	0.645679
N	1.75136	-0.919173	-0.455776
C	1.08013	-0.898147	-1.63299
C	-0.122084	0.182461	0.514917
C	-0.704937	0.138226	-0.762326
N	-0.148306	-0.390483	-1.87264
H	1.59207	-1.34119	-2.47778
N	1.84059	-0.402666	1.82001
H	2.75685	-0.819155	1.84436
H	1.43373	-0.0109576	2.65304
N	-0.978228	0.802043	1.43252
C	-2.05132	1.12277	0.722253
N	-1.94045	0.744435	-0.613126
H	-2.92544	1.6204	1.10833
H	-2.61759	0.876821	-1.34699
C	5.68184	1.40762	2.37083
C	5.48956	0.505188	1.18589
H	4.72899	1.84983	2.68376
H	6.34461	2.24417	2.12122
H	6.10968	0.865771	3.21971
C	4.92334	1.088	-0.0331757
C	5.8093	-0.813398	1.18162
N	5.6188	-1.62049	0.0693444
H	6.23117	-1.3082	2.0478
N	4.76883	0.187984	-1.10779
C	5.08859	-1.16426	-1.13549
H	4.37907	0.569855	-1.96083
H	5.86468	-2.59898	0.0907201
O	4.9233	-1.89862	-2.12508
O	4.58793	2.2829	-0.160729
