30
  This energy is 4.6621e-05 and Call times are: 11901
C	-0.665176	0.0126005	-1.21508
N	0.184448	0.8871	-1.81629
C	1.23621	1.37014	-1.11109
C	-0.414002	-0.355977	0.123364
C	0.711016	0.218726	0.737426
N	1.57124	1.08844	0.166646
H	1.88091	2.06265	-1.63723
N	-1.71497	-0.467341	-1.92427
H	-1.83667	-0.163231	-2.87627
H	-2.36155	-1.11611	-1.50722
N	-1.08105	-1.21262	1.00658
C	-0.372476	-1.15374	2.12611
N	0.723978	-0.302169	2.0199
H	-0.596214	-1.69305	3.03156
H	1.40828	-0.0910979	2.72826
C	16.2916	2.69725	-0.43486
C	16.7834	1.30774	-0.147101
H	15.4033	2.92905	0.163933
H	15.9922	2.79605	-1.48461
H	17.061	3.44516	-0.220385
C	15.8633	0.193083	-0.386363
C	18.0263	1.02861	0.320007
N	18.4501	-0.267411	0.576153
H	18.7562	1.80377	0.51869
N	16.3863	-1.08407	-0.0964742
C	17.6538	-1.39396	0.381953
H	15.7669	-1.86943	-0.254804
H	19.3799	-0.449636	0.92339
O	18.0463	-2.55039	0.615434
O	14.6971	0.312775	-0.813251
