30
  This energy is -5.4754e-05 and Call times are: 11857
C	-0.0538927	-0.874692	1.07287
N	-0.213369	0.0908494	2.01646
C	-0.257096	1.38822	1.62689
C	0.0597264	-0.482433	-0.277536
C	-0.00191896	0.89542	-0.543509
N	-0.159362	1.87568	0.371087
H	-0.385524	2.11596	2.41805
N	-0.0108107	-2.17	1.46742
H	-0.0980418	-2.38145	2.44786
H	0.106262	-2.90765	0.792824
N	0.228533	-1.21151	-1.46025
C	0.267405	-0.292078	-2.41524
N	0.132605	1.00115	-1.91718
H	0.388622	-0.493706	-3.46662
H	0.130614	1.86283	-2.4388
C	13.4087	-2.46601	1.06164
C	13.8889	-1.10043	0.661564
H	13.9273	-3.24511	0.491183
H	12.3405	-2.58315	0.845911
H	13.5707	-2.64926	2.12814
C	13.7391	-0.706433	-0.741547
C	14.4511	-0.215697	1.52299
N	14.885	1.03931	1.12106
H	14.5921	-0.441693	2.57282
N	14.2093	0.586578	-1.05085
C	14.7878	1.50888	-0.186978
H	14.1155	0.87967	-2.01557
H	15.3002	1.68008	1.78089
O	15.1806	2.63642	-0.533761
O	13.2401	-1.42365	-1.63218
