30
  This energy is -0.0043817 and Call times are: 4353
C	-0.734897	-0.996513	-0.621224
N	-0.917504	-0.314606	-1.783
C	-0.388754	0.927323	-1.90498
C	0.000664238	-0.378821	0.412105
C	0.493201	0.911119	0.154261
N	0.328071	1.61194	-0.987561
H	-0.563738	1.42557	-2.85006
N	-1.26542	-2.23757	-0.504296
H	-1.77986	-2.62015	-1.28056
H	-1.14753	-2.76763	0.343081
N	0.35816	-0.801339	1.69761
C	1.04996	0.212206	2.20062
N	1.16304	1.276	1.30943
H	1.48712	0.237676	3.185
H	1.637	2.15252	1.45666
C	5.5496	-1.17942	2.5066
C	5.90614	-0.661505	1.14275
H	4.52461	-1.56744	2.52145
H	5.58781	-0.376396	3.25164
H	6.22876	-1.97794	2.82023
C	5.08484	0.415142	0.583556
C	6.94135	-1.13303	0.403204
N	7.24436	-0.632567	-0.854797
H	7.58825	-1.92709	0.755404
N	5.47232	0.855461	-0.69889
C	6.52698	0.388477	-1.47425
H	4.91812	1.59955	-1.10462
H	8.01993	-0.999904	-1.38575
O	6.80957	0.827955	-2.60248
O	4.10765	0.935922	1.1584
