30
  This energy is -0.00560735 and Call times are: 7674
C	-0.78447	-0.410477	-1.06543
N	-1.55054	0.712041	-1.09941
C	-1.30868	1.69892	-0.202519
C	0.234031	-0.499859	-0.0933061
C	0.377561	0.594732	0.775192
N	-0.366917	1.72071	0.765366
H	-1.94742	2.57014	-0.273606
N	-1.03024	-1.39404	-1.96408
H	-1.77293	-1.26641	-2.6317
H	-0.48048	-2.23705	-1.96445
N	1.17312	-1.49539	0.199741
C	1.86522	-1.00957	1.22143
N	1.42648	0.253006	1.61139
H	2.68045	-1.51275	1.71437
H	1.78874	0.825773	2.35658
C	4.35214	0.335762	-1.70032
C	5.62687	0.112041	-0.938443
H	3.98637	1.35914	-1.55784
H	3.55949	-0.329719	-1.33946
H	4.49185	0.161929	-2.77154
C	5.59923	0.30628	0.513419
C	6.79699	-0.257967	-1.51708
N	7.95815	-0.456492	-0.784174
H	6.88816	-0.418529	-2.58431
N	6.82758	0.0804928	1.16829
C	8.03692	-0.298344	0.597737
H	6.83121	0.209005	2.17273
H	8.81661	-0.731743	-1.23763
O	9.0844	-0.479767	1.24255
O	4.59154	0.644809	1.16651
