30
  This energy is -5.2066e-05 and Call times are: 11923
C	1.14502	-0.767865	-0.135459
N	1.87235	0.196912	-0.758568
C	1.2986	1.402	-0.994
C	-0.181932	-0.471374	0.240921
C	-0.652988	0.816608	-0.0627724
N	0.0448342	1.7937	-0.679627
H	1.92164	2.13356	-1.49268
N	1.72309	-1.97073	0.0975697
H	2.67468	-2.11665	-0.197006
H	1.21074	-2.70525	0.556801
N	-1.17115	-1.22577	0.882162
C	-2.21308	-0.40911	0.961821
N	-1.95551	0.840931	0.405292
H	-3.16445	-0.657617	1.40215
H	-2.58258	1.62685	0.344375
C	15.5641	2.17811	-1.72962
C	15.408	1.13081	-0.664629
H	14.695	2.18875	-2.39742
H	16.4362	1.96785	-2.35933
H	15.6811	3.17522	-1.29451
C	15.2413	-0.260445	-1.09246
C	15.4125	1.40008	0.665181
N	15.2655	0.408635	1.62449
H	15.5311	2.40533	1.0505
N	15.1	-1.1933	-0.0443667
C	15.1014	-0.941453	1.32243
H	14.9836	-2.16141	-0.317559
H	15.2722	0.634052	2.6081
O	14.971	-1.82011	2.1924
O	15.2195	-0.641391	-2.2803
