30
  This energy is -0.0132806 and Call times are: 9526
C	-1.3033	-0.451305	-0.129509
N	-1.04659	-1.71062	0.313541
C	0.218983	-2.03378	0.675109
C	-0.235984	0.469045	-0.194021
C	1.02602	0.00378664	0.210817
N	1.31074	-1.2389	0.654502
H	0.368043	-3.049	1.02032
N	-2.56997	-0.133274	-0.489715
H	-3.28556	-0.837949	-0.419326
H	-2.7918	0.79058	-0.821665
N	-0.168644	1.80831	-0.59488
C	1.10536	2.14002	-0.434382
N	1.87454	1.08579	0.0510358
H	1.52631	3.10862	-0.647387
H	2.86113	1.08827	0.254108
C	5.72083	-0.359354	-2.53579
C	6.4685	-0.265251	-1.23673
H	5.52476	0.637669	-2.94676
H	4.74285	-0.832379	-2.39021
H	6.2804	-0.937683	-3.27718
C	5.84484	0.480801	-0.140903
C	7.68356	-0.829795	-1.0226
N	8.34857	-0.724028	0.190423
H	8.2011	-1.39444	-1.78837
N	6.59812	0.531107	1.0502
C	7.84253	-0.0383347	1.29253
H	6.1856	1.04188	1.82114
H	9.25196	-1.15301	0.325394
O	8.44916	0.0485438	2.37436
O	4.73441	1.04576	-0.206803
