30
  This energy is -0.000672709 and Call times are: 8711
C	-0.533869	-0.874086	0.932732
N	-0.274447	-0.0855475	2.00929
C	0.331092	1.11134	1.8153
C	-0.159686	-0.410065	-0.345952
C	0.46051	0.848827	-0.405718
N	0.73061	1.65298	0.644313
H	0.514222	1.69904	2.70587
N	-1.13932	-2.06954	1.13195
H	-1.38016	-2.34059	2.07116
H	-1.34468	-2.6758	0.355306
N	-0.282678	-0.966526	-1.62427
C	0.251718	-0.0620418	-2.43372
N	0.717901	1.05757	-1.74975
H	0.329997	-0.15591	-3.50415
H	1.16084	1.8743	-2.13879
C	10.0217	-1.48771	2.1844
C	9.46356	-0.569261	1.13542
H	11.1016	-1.62093	2.05242
H	9.57468	-2.48556	2.10777
H	9.8391	-1.10082	3.19148
C	9.62959	-0.953284	-0.268634
C	8.81743	0.590772	1.4143
N	8.31334	1.41781	0.420943
H	8.66004	0.934634	2.42921
N	9.08347	-0.0485795	-1.20242
C	8.4186	1.14353	-0.940889
H	9.18683	-0.294519	-2.17927
H	7.83622	2.27603	0.653667
O	7.96193	1.8936	-1.82109
O	10.2022	-1.99068	-0.659192
