30
  This energy is -0.0017269 and Call times are: 7516
C	-1.2561	-0.494175	0.311503
N	-0.981859	-1.77578	-0.0495483
C	0.253038	-2.07467	-0.521289
C	-0.238399	0.473836	0.178832
C	0.995863	0.029525	-0.323368
N	1.29696	-1.23436	-0.689571
H	0.417932	-3.10929	-0.794063
N	-2.49196	-0.200564	0.782451
H	-3.17255	-0.939192	0.851924
H	-2.72567	0.7388	1.05791
N	-0.199688	1.84531	0.455262
C	1.03036	2.21643	0.126428
N	1.79797	1.1574	-0.350968
H	1.41969	3.21764	0.208728
H	2.75558	1.18461	-0.662164
C	4.89479	-1.8979	1.96624
C	5.25793	-1.02169	0.801844
H	3.86307	-1.71349	2.28708
H	5.53181	-1.68148	2.83155
H	4.9971	-2.95793	1.71503
C	5.17105	0.429367	0.984283
C	5.65984	-1.49682	-0.403828
N	5.98828	-0.6597	-1.46033
H	5.74605	-2.55714	-0.607193
N	5.52522	1.19433	-0.146242
C	5.93909	0.730783	-1.38938
H	5.47245	2.20022	-0.042258
H	6.28476	-1.03725	-2.34797
O	6.23648	1.46956	-2.3442
O	4.81668	0.993491	2.03916
