30
  This energy is 6.8993e-05 and Call times are: 8513
C	-0.0622319	-1.38369	-0.0234804
N	1.19944	-1.55986	-0.49804
C	1.96549	-0.469632	-0.745861
C	-0.521672	-0.067236	0.191502
C	0.37474	0.972328	-0.106448
N	1.63133	0.828201	-0.578038
H	2.96126	-0.66644	-1.12235
N	-0.823926	-2.47668	0.222632
H	-0.434692	-3.38847	0.0473531
H	-1.76186	-2.37914	0.574296
N	-1.73798	0.442233	0.660434
C	-1.57571	1.7584	0.644483
N	-0.315166	2.13551	0.188975
H	-2.31816	2.47917	0.944523
H	0.0462417	3.07008	0.0862081
C	20.6476	0.440454	0.602881
C	19.1662	0.360348	0.3693
H	21.1925	0.460008	-0.347965
H	21.0054	-0.441125	1.14708
H	20.9135	1.33444	1.175
C	18.6536	-0.786053	-0.385282
C	18.2806	1.28615	0.815869
N	16.9168	1.18283	0.582747
H	18.5908	2.15754	1.37936
N	17.2555	-0.801244	-0.569366
C	16.33	0.134113	-0.12207
H	16.8795	-1.58518	-1.08843
H	16.2778	1.88466	0.925399
O	15.1058	0.0536243	-0.323709
O	19.3589	-1.70438	-0.849862
