30
  This energy is -0.000197297 and Call times are: 13244
C	-0.305493	-1.34207	-0.156737
N	-0.161089	-1.3485	-1.50847
C	0.183132	-0.198208	-2.1371
C	-0.0897246	-0.132386	0.536432
C	0.262461	0.985946	-0.23708
N	0.412997	1.00974	-1.57833
H	0.284725	-0.258981	-3.21321
N	-0.649675	-2.49445	0.466888
H	-0.788865	-3.32309	-0.0877067
H	-0.764191	-2.5219	1.46641
N	-0.156157	0.201259	1.89405
C	0.149309	1.49118	1.93502
N	0.412111	2.01801	0.673247
H	0.19657	2.08991	2.82947
H	0.664556	2.96582	0.444094
C	5.89361	-0.770627	2.43571
C	5.28316	-0.534958	1.08396
H	5.22898	-0.415639	3.23174
H	6.8313	-0.213367	2.54337
H	6.09876	-1.8326	2.60116
C	4.95084	0.843174	0.71421
C	5.0234	-1.52251	0.190542
N	4.45797	-1.27116	-1.05122
H	5.24361	-2.56233	0.398774
N	4.38124	0.995583	-0.56681
C	4.10628	0.000816487	-1.49762
H	4.14374	1.94039	-0.843107
H	4.27426	-2.02295	-1.69884
O	3.60025	0.212137	-2.61349
O	5.13819	1.83943	1.44149
