30
  This energy is -3.3551e-05 and Call times are: 10687
C	-0.297346	0.0651317	1.35143
N	-1.40442	-0.720234	1.27623
C	-1.77398	-1.21977	0.0717636
C	0.422341	0.327385	0.166682
C	-0.0698191	-0.25269	-1.01413
N	-1.16451	-1.03548	-1.11936
H	-2.66234	-1.83852	0.0683182
N	0.0678561	0.562004	2.55771
H	-0.490418	0.335968	3.36445
H	0.882409	1.14648	2.64598
N	1.57546	1.07807	-0.0895538
C	1.77148	0.951683	-1.39511
N	0.805215	0.156538	-2.00563
H	2.57894	1.40214	-1.94816
H	0.73708	-0.0871026	-2.98062
C	11.9788	-1.79109	-1.51295
C	11.1048	-0.97583	-0.603668
H	13.0192	-1.44965	-1.46418
H	11.6654	-1.68163	-2.55754
H	11.9481	-2.85268	-1.24964
C	11.0406	0.469951	-0.831692
C	10.375	-1.50113	0.412379
N	9.5768	-0.71967	1.23523
H	10.3761	-2.56076	0.636586
N	10.2029	1.17654	0.0557693
C	9.44705	0.661019	1.10198
H	10.1435	2.17773	-0.083872
H	9.04295	-1.13392	1.98474
O	8.72774	1.34963	1.84651
O	11.6603	1.07658	-1.72868
