30
  This energy is 0.000123679 and Call times are: 13853
C	0.892939	0.923806	-0.517952
N	1.79212	0.813931	0.49569
C	1.53217	-0.0424269	1.51349
C	-0.277495	0.137823	-0.466194
C	-0.422679	-0.708475	0.645436
N	0.451783	-0.838573	1.66552
H	2.28073	-0.0910446	2.29409
N	1.15743	1.7812	-1.53298
H	2.01203	2.31285	-1.50844
H	0.511482	1.88493	-2.29776
N	-1.37297	0.0197325	-1.32924
C	-2.15856	-0.877461	-0.748918
N	-1.63252	-1.35206	0.449708
H	-3.1031	-1.21983	-1.13801
H	-2.03803	-2.03325	1.07112
C	10.0997	1.12135	-0.75681
C	11.4875	0.684351	-0.385027
H	9.41009	0.989973	0.0849997
H	9.70532	0.512344	-1.5784
H	10.0805	2.17197	-1.0619
C	11.6754	-0.703128	0.0462392
C	12.5717	1.49906	-0.425945
N	13.8417	1.06401	-0.0754179
H	12.5044	2.53497	-0.734858
N	13.0011	-1.0488	0.380794
C	14.1257	-0.232917	0.346752
H	13.1539	-2.00356	0.681611
H	14.6328	1.68924	-0.114152
O	15.2689	-0.609852	0.657865
O	10.7648	-1.552	0.127715
