30
  This energy is -0.000143271 and Call times are: 11945
C	0.141913	-0.437494	1.30671
N	0.739139	0.697719	1.75692
C	0.954404	1.715	0.887636
C	-0.229697	-0.507763	-0.0524554
C	0.0512742	0.617923	-0.84423
N	0.642233	1.75714	-0.425746
H	1.43287	2.59513	1.29809
N	-0.0710289	-1.45145	2.17959
H	0.218751	-1.33616	3.13684
H	-0.510894	-2.30453	1.87681
N	-0.847248	-1.5091	-0.810624
C	-0.935216	-0.996267	-2.03052
N	-0.406604	0.289477	-2.10863
H	-1.36261	-1.49521	-2.88442
H	-0.356764	0.884549	-2.9198
C	15.3041	2.20759	-0.238508
C	14.2516	1.14159	-0.132821
H	15.9894	1.99904	-1.06817
H	15.9177	2.24199	0.669075
H	14.8582	3.19446	-0.394909
C	14.6946	-0.238721	0.0789537
C	12.9197	1.3845	-0.222294
N	11.9721	0.376243	-0.12058
H	12.5234	2.38033	-0.378371
N	13.6576	-1.19016	0.169218
C	12.289	-0.965378	0.0807255
H	13.9414	-2.1511	0.315745
H	10.9866	0.582121	-0.190382
O	11.4294	-1.85926	0.170309
O	15.8859	-0.595829	0.178642
