30
  This energy is 5.1312e-05 and Call times are: 8403
C	1.01968	0.0990456	0.93246
N	0.283537	-0.366769	1.9761
C	-1.00894	-0.715	1.76375
C	0.403306	0.200256	-0.332533
C	-0.942305	-0.194334	-0.414099
N	-1.6976	-0.659981	0.60319
H	-1.54913	-1.07949	2.62826
N	2.31113	0.445788	1.14992
H	2.68959	0.348926	2.07781
H	2.88199	0.793903	0.397699
N	0.873109	0.630765	-1.57865
C	-0.167112	0.497711	-2.39051
N	-1.29323	0.00209597	-1.73868
H	-0.169749	0.73811	-3.44073
H	-2.19978	-0.185152	-2.13581
C	14.7557	0.615819	2.67326
C	14.306	0.202976	1.30114
H	14.8566	1.70521	2.73996
H	15.7429	0.198507	2.90275
H	14.0504	0.28383	3.44103
C	15.1502	0.576091	0.163363
C	13.1668	-0.492758	1.05776
N	12.7792	-0.858934	-0.223058
H	12.4972	-0.800364	1.85152
N	14.6717	0.158624	-1.0958
C	13.51	-0.553587	-1.36918
H	15.24	0.405897	-1.89661
H	11.927	-1.3766	-0.378603
O	13.1511	-0.888185	-2.5116
O	16.2191	1.21355	0.249891
