30
  This energy is -5.8846e-05 and Call times are: 13511
C	0.378626	-1.28822	-0.340837
N	-0.437644	-1.37843	-1.42418
C	-1.22418	-0.32174	-1.74295
C	0.371548	-0.092747	0.408271
C	-0.491448	0.924479	-0.0316269
N	-1.31204	0.863722	-1.10173
H	-1.85439	-0.446567	-2.61433
N	1.16287	-2.3472	-0.0264151
H	1.11942	-3.17107	-0.60343
H	1.77782	-2.31118	0.769481
N	1.07593	0.309529	1.54883
C	0.645598	1.54087	1.78861
N	-0.304354	1.96425	0.862857
H	0.975978	2.16686	2.60085
H	-0.777548	2.8529	0.831459
C	8.58167	1.43377	2.26031
C	8.99296	0.819274	0.953159
H	9.39478	1.3743	2.99292
H	7.73243	0.894439	2.69541
H	8.30065	2.48399	2.13655
C	9.39828	-0.588597	0.956518
C	9.01016	1.49215	-0.224916
N	9.39601	0.894777	-1.41618
H	8.72324	2.53389	-0.299272
N	9.77227	-1.104	-0.301725
C	9.79782	-0.435156	-1.51974
H	10.0561	-2.07582	-0.322549
H	9.40041	1.41644	-2.28001
O	10.1411	-0.958258	-2.59419
O	9.42707	-1.31788	1.96839
