30
  This energy is -0.00345704 and Call times are: 8975
C	0.72258	-1.08091	-0.478056
N	1.25724	-1.41888	0.725267
C	0.937905	-0.680359	1.81589
C	-0.145722	0.0293206	-0.539668
C	-0.39235	0.707328	0.66553
N	0.1233	0.395424	1.87342
H	1.39096	-0.992634	2.74824
N	1.04491	-1.82229	-1.56517
H	1.67107	-2.60246	-1.45178
H	0.665428	-1.5974	-2.46978
N	-0.843843	0.62286	-1.59759
C	-1.49522	1.63476	-1.04023
N	-1.25856	1.73311	0.328344
H	-2.14178	2.32008	-1.56277
H	-1.63525	2.41277	0.969245
C	5.72578	2.15344	1.70947
C	5.82707	0.99679	0.756932
H	6.34688	2.99173	1.37348
H	6.09354	1.87416	2.70353
H	4.69302	2.50188	1.80555
C	7.15212	0.417224	0.522948
C	4.76496	0.461437	0.104061
N	4.89249	-0.608007	-0.770509
H	3.75835	0.840694	0.230388
N	7.17807	-0.664682	-0.381202
C	6.10521	-1.22927	-1.06074
H	8.08425	-1.08077	-0.557649
H	4.08709	-0.988898	-1.24443
O	6.20539	-2.18745	-1.84672
O	8.20667	0.814467	1.05839
