30
  This energy is 0.00016872 and Call times are: 13577
C	-0.114277	-1.37709	0.0979315
N	0.533554	-1.47423	1.28913
C	0.997676	-0.345041	1.87766
C	-0.276144	-0.0988576	-0.476767
C	0.252998	0.988075	0.2385
N	0.900068	0.922425	1.42137
H	1.50556	-0.479037	2.82431
N	-0.576291	-2.50874	-0.486249
H	-0.427127	-3.38969	-0.0222689
H	-1.05987	-2.46971	-1.36803
N	-0.8806	0.331861	-1.66335
C	-0.718123	1.6481	-1.6608
N	-0.0381709	2.1	-0.53292
H	-1.06286	2.31771	-2.43122
H	0.205639	3.04978	-0.302549
C	6.43093	0.988275	2.00803
C	5.53237	0.627303	0.860113
H	7.33745	0.372148	2.00323
H	5.93403	0.801049	2.96689
H	6.72546	2.04133	1.96829
C	5.05168	-0.754076	0.775717
C	5.14302	1.50496	-0.0985556
N	4.31146	1.13924	-1.14718
H	5.46094	2.54033	-0.097208
N	4.21282	-1.02691	-0.324542
C	3.80109	-0.145844	-1.3174
H	3.86876	-1.97611	-0.402364
H	4.03562	1.81054	-1.84833
O	3.05632	-0.460206	-2.26207
O	5.33419	-1.6563	1.58981
