30
  This energy is -0.000602076 and Call times are: 8026
C	-0.429203	-1.05811	0.784355
N	-0.970591	-1.76613	-0.242135
C	-0.907306	-1.2562	-1.49625
C	0.177985	0.182784	0.498244
C	0.1747	0.594071	-0.844832
N	-0.354245	-0.0864914	-1.88369
H	-1.35351	-1.86034	-2.27597
N	-0.495057	-1.57217	2.03606
H	-0.94283	-2.4637	2.17122
H	-0.103534	-1.07207	2.81678
N	0.811112	1.13196	1.30885
C	1.17985	2.09189	0.471327
N	0.820057	1.81871	-0.845712
H	1.70049	2.99296	0.750191
H	0.987505	2.38916	-1.65882
C	4.2704	-0.594828	0.172805
C	5.71943	-0.309219	-0.0995624
H	3.77643	0.278341	0.614358
H	4.16246	-1.4109	0.896516
H	3.73881	-0.869337	-0.743331
C	6.56609	0.0730137	1.03333
C	6.28525	-0.384932	-1.33043
N	7.62836	-0.114244	-1.54865
H	5.71806	-0.66112	-2.21082
N	7.91498	0.327279	0.710022
C	8.51619	0.256323	-0.54101
H	8.5185	0.593103	1.47847
H	8.02619	-0.177504	-2.47389
O	9.71811	0.495975	-0.75043
O	6.1714	0.179087	2.21212
