30
  This energy is -0.00491023 and Call times are: 11260
C	-0.584511	0.756388	1.00262
N	0.565595	0.954011	1.69996
C	1.71769	0.415263	1.2317
C	-0.528637	-0.00463659	-0.184002
C	0.729996	-0.505101	-0.556023
N	1.88734	-0.325516	0.115159
H	2.60352	0.603021	1.82509
N	-1.73346	1.297	1.47488
H	-1.70366	1.82976	2.32862
H	-2.60112	1.16848	0.981382
N	-1.50865	-0.382031	-1.10921
C	-0.853247	-1.09328	-2.01666
N	0.505487	-1.20018	-1.7319
H	-1.29613	-1.54912	-2.88661
H	1.20831	-1.68557	-2.26579
C	8.00199	1.69344	1.99065
C	7.33295	0.740157	1.04245
H	8.04015	2.70357	1.56688
H	9.04045	1.39566	2.17595
H	7.47614	1.73761	2.94917
C	7.92307	0.571376	-0.287835
C	6.21776	0.0301491	1.3477
N	5.6235	-0.843009	0.448091
H	5.73016	0.106794	2.31177
N	7.24728	-0.336976	-1.1286
C	6.10548	-1.0743	-0.838415
H	7.6383	-0.469106	-2.05329
H	4.79402	-1.36023	0.698678
O	5.56306	-1.86006	-1.63482
O	8.94414	1.16278	-0.693065
