30
  This energy is 0.00012562 and Call times are: 12935
C	-0.109287	0.626337	1.23077
N	1.10383	1.23694	1.17107
C	1.88292	1.04325	0.0791169
C	-0.506571	-0.18643	0.148207
C	0.396708	-0.301723	-0.921286
N	1.60605	0.291649	-1.00837
H	2.83832	1.55241	0.082938
N	-0.884261	0.823145	2.3244
H	-0.540458	1.41577	3.06209
H	-1.78729	0.38498	2.39827
N	-1.66401	-0.935206	-0.0937343
C	-1.46044	-1.48788	-1.28201
N	-0.228758	-1.13859	-1.8294
H	-2.15239	-2.13813	-1.79105
H	0.153724	-1.42809	-2.71512
C	9.04079	-1.5139	-1.40264
C	8.13446	-0.72301	-0.503486
H	9.37692	-0.906307	-2.25072
H	8.51381	-2.37558	-1.8283
H	9.92117	-1.87597	-0.863114
C	6.90807	-0.169886	-1.08351
C	8.38706	-0.493204	0.809643
N	7.52856	0.242525	1.61371
H	9.27416	-0.872192	1.30209
N	6.102	0.56146	-0.18681
C	6.33976	0.80966	1.15983
H	5.24887	0.952868	-0.566783
H	7.73841	0.399837	2.58817
O	5.57909	1.46684	1.89153
O	6.55916	-0.307735	-2.27339
