30
  This energy is -0.00500785 and Call times are: 10182
C	-0.925131	0.839801	-0.598245
N	-1.38916	1.36763	0.565433
C	-0.855775	0.943646	1.73701
C	0.0964902	-0.131138	-0.535563
C	0.559823	-0.480394	0.743641
N	0.119	0.0258206	1.9148
H	-1.26134	1.39615	2.633
N	-1.46157	1.26694	-1.76664
H	-2.18853	1.96297	-1.7407
H	-1.13938	0.895339	-2.64471
N	0.775075	-0.851183	-1.52547
C	1.62695	-1.61583	-0.855762
N	1.53994	-1.43243	0.521722
H	2.32017	-2.31017	-1.30084
H	2.07769	-1.89376	1.23768
C	4.04991	0.801261	0.970542
C	5.43547	0.549367	0.448791
H	3.88953	0.279396	1.92098
H	3.29482	0.417394	0.274942
H	3.86988	1.86941	1.12513
C	5.82739	-0.838438	0.190349
C	6.3401	1.53071	0.204812
N	7.61343	1.26428	-0.277369
H	6.11686	2.577	0.373675
N	7.13975	-1.00594	-0.297835
C	8.08261	-0.0177847	-0.555012
H	7.4317	-1.95762	-0.48356
H	8.26878	2.01172	-0.451107
O	9.22654	-0.242566	-0.987198
O	5.09281	-1.83039	0.37195
