30
  This energy is 0.000106629 and Call times are: 11703
C	-0.0118195	1.29682	-0.486973
N	-0.443068	1.86372	0.670924
C	-0.676454	1.06884	1.74356
C	0.174982	-0.101119	-0.522008
C	-0.103737	-0.806531	0.660249
N	-0.532501	-0.271736	1.82315
H	-1.01819	1.57122	2.63959
N	0.220029	2.09569	-1.55628
H	0.0666089	3.0864	-1.46377
H	0.539827	1.70607	-2.42739
N	0.598795	-0.970773	-1.53342
C	0.575148	-2.17169	-0.971167
N	0.157431	-2.13157	0.356452
H	0.843586	-3.09242	-1.46203
H	0.0573099	-2.9064	0.992234
C	10.2052	2.71868	-0.382603
C	10.6129	1.27466	-0.319133
H	10.4264	3.2289	0.56194
H	9.1246	2.8129	-0.540123
H	10.7221	3.24398	-1.19141
C	10.0034	0.436567	0.71647
C	11.51	0.705878	-1.16325
N	11.8656	-0.632441	-1.07777
H	11.9981	1.26679	-1.95079
N	10.4287	-0.907967	0.721655
C	11.3447	-1.51207	-0.131332
H	10.0198	-1.50554	1.42955
H	12.5356	-1.03262	-1.71754
O	11.672	-2.70977	-0.0659352
O	9.16741	0.834719	1.55266
