30
  This energy is 5.3703e-05 and Call times are: 12605
C	-0.590032	1.24437	-0.149764
N	-0.313069	1.66925	1.11152
C	0.350668	0.839266	1.95261
C	-0.172502	-0.0483798	-0.530319
C	0.506414	-0.80496	0.439053
N	0.79523	-0.410271	1.69722
H	0.545348	1.22709	2.94444
N	-1.2537	2.07777	-0.986635
H	-1.52319	2.98805	-0.651436
H	-1.47344	1.7923	-1.92638
N	-0.298917	-0.766621	-1.72489
C	0.290907	-1.92864	-1.47849
N	0.796584	-2.00679	-0.183557
H	0.383371	-2.73945	-2.1819
H	1.28367	-2.78023	0.239676
C	12.7542	1.22072	-0.917224
C	13.9219	0.406968	-0.438081
H	13.0141	1.78172	-1.82228
H	12.4609	1.96303	-0.165998
H	11.8895	0.587054	-1.13664
C	15.1587	1.11691	-0.102227
C	13.8955	-0.942513	-0.299781
N	14.9927	-1.66538	0.145619
H	13.0149	-1.52955	-0.530121
N	16.2158	0.295385	0.340771
C	16.2121	-1.08637	0.490158
H	17.0806	0.765582	0.57858
H	14.9484	-2.66908	0.240317
O	17.1878	-1.74621	0.888309
O	15.3145	2.35201	-0.184758
