30
  This energy is 0.000310783 and Call times are: 6408
C	0.256698	0.033175	-1.3609
N	1.11967	1.08194	-1.30217
C	1.38632	1.64571	-0.0988786
C	-0.32671	-0.425097	-0.160902
C	0.0360891	0.24902	1.01679
N	0.888842	1.29164	1.10584
H	2.07983	2.47696	-0.108867
N	-0.00651777	-0.526847	-2.56607
H	0.444002	-0.151012	-3.38423
H	-0.640867	-1.30446	-2.64234
N	-1.23164	-1.45686	0.113729
C	-1.40841	-1.40361	1.42705
N	-0.665093	-0.389516	2.02518
H	-2.04886	-2.0584	1.99435
H	-0.629608	-0.149163	3.00272
C	7.66374	2.02662	-1.13222
C	6.97212	0.897236	-0.423992
H	7.13579	2.97289	-0.967152
H	7.67221	1.86137	-2.21574
H	8.69659	2.13974	-0.789202
C	5.57752	0.620108	-0.77708
C	7.56402	0.123181	0.520159
N	6.89657	-0.913387	1.15646
H	8.59132	0.272905	0.828867
N	4.98716	-0.451886	-0.0763705
C	5.57251	-1.25751	0.89312
H	4.0231	-0.661066	-0.304936
H	7.35862	-1.47538	1.85577
O	4.98619	-2.18941	1.47078
O	4.91923	1.25486	-1.6258
