30
  This energy is 0.000613087 and Call times are: 1513
C	0.555858	0.878042	-0.916021
N	-0.430877	1.8078	-0.816145
C	-1.46608	1.57793	0.0278727
C	0.459016	-0.291484	-0.132956
C	-0.666316	-0.403745	0.700139
N	-1.66048	0.50147	0.820115
H	-2.22381	2.35006	0.0689015
N	1.58844	1.11254	-1.7611
H	1.59635	1.96833	-2.29135
H	2.33416	0.443543	-1.85722
N	1.28655	-1.41317	-0.00700416
C	0.671967	-2.18195	0.881892
N	-0.515362	-1.62005	1.34361
H	1.02784	-3.13855	1.22691
H	-1.15682	-2.00733	2.01677
C	6.3058	2.60378	-0.756854
C	6.58118	1.15067	-0.49593
H	7.24001	3.15874	-0.900592
H	5.79973	3.06522	0.0989204
H	5.68081	2.73821	-1.64486
C	7.40792	0.808595	0.66419
C	6.1094	0.142	-1.27112
N	6.38253	-1.19148	-1.00265
H	5.49307	0.32349	-2.14306
N	7.62835	-0.571468	0.852667
C	7.15636	-1.62093	0.0732968
H	8.19741	-0.830631	1.64917
H	6.01994	-1.92415	-1.59432
O	7.39328	-2.81976	0.302595
O	7.90193	1.63784	1.45468
