30
  This energy is -0.00023383 and Call times are: 5200
C	-1.21224	-0.298055	-0.600559
N	-1.97216	0.366839	0.309662
C	-1.35903	0.998613	1.34008
C	0.188484	-0.301603	-0.432256
C	0.693959	0.392689	0.679263
N	-0.0347762	1.06087	1.59832
H	-2.01064	1.51237	2.03542
N	-1.82992	-0.927945	-1.6287
H	-2.83395	-0.886171	-1.69007
H	-1.295	-1.4286	-2.3187
N	1.22592	-0.877886	-1.17421
C	2.32983	-0.537314	-0.52285
N	2.06704	0.232357	0.60729
H	3.33089	-0.811015	-0.81221
H	2.73347	0.610472	1.26112
C	5.64272	2.41834	-0.726986
C	6.2415	1.05945	-0.502689
H	6.40414	3.20112	-0.63272
H	4.87795	2.63748	0.0269952
H	5.18607	2.49439	-1.71841
C	6.89225	0.802564	0.784527
C	6.21362	0.0613767	-1.42139
N	6.77684	-1.18391	-1.18288
H	5.7495	0.182992	-2.3924
N	7.43342	-0.49142	0.930894
C	7.41705	-1.52828	0.00557782
H	7.88807	-0.6908	1.81348
H	6.74325	-1.91053	-1.88233
O	7.91756	-2.64859	0.206391
O	6.98616	1.63186	1.7119
