30
  This energy is -0.00376013 and Call times are: 11415
C	-1.01083	0.650405	0.688636
N	-2.0151	-0.128811	0.206607
C	-1.71312	-1.12811	-0.657722
C	0.308561	0.383753	0.266194
C	0.482042	-0.681789	-0.632441
N	-0.494307	-1.47163	-1.12749
H	-2.54972	-1.71771	-1.01058
N	-1.3179	1.64796	1.55233
H	-2.28071	1.78442	1.81305
H	-0.596792	2.24192	1.92664
N	1.53536	0.985676	0.568716
C	2.42578	0.297026	-0.132567
N	1.84365	-0.724595	-0.878278
H	3.4867	0.484339	-0.143577
H	2.30613	-1.38074	-1.48671
C	6.10488	-0.253872	-2.72319
C	6.53423	0.0208439	-1.31053
H	5.01817	-0.155686	-2.82728
H	6.35249	-1.28128	-3.0139
H	6.58548	0.432497	-3.42687
C	5.97405	-0.819842	-0.249472
C	7.40763	0.9996	-0.963923
N	7.78391	1.22783	0.351816
H	7.85905	1.65696	-1.69684
N	6.41751	-0.51004	1.05285
C	7.30985	0.485914	1.4315
H	6.04284	-1.07906	1.80202
H	8.4356	1.96232	0.584588
O	7.65563	0.700995	2.60627
O	5.1639	-1.75075	-0.432889
