30
  This energy is -0.0012712 and Call times are: 9129
C	-0.754616	-0.0384409	-1.16108
N	0.310137	-0.120456	-2.0023
C	1.56029	-0.133722	-1.47906
C	-0.510883	0.0296369	0.226839
C	0.832923	0.00690576	0.635117
N	1.90918	-0.0738221	-0.175643
H	2.37152	-0.200214	-2.19288
N	-2.00218	-0.0255231	-1.68907
H	-2.10606	-0.0769886	-2.68915
H	-2.81058	0.034427	-1.09258
N	-1.36609	0.119066	1.33114
C	-0.554056	0.14937	2.37927
N	0.788648	0.0843059	2.01652
H	-0.869453	0.216462	3.40727
H	1.59034	0.0908694	2.62631
C	9.38775	-1.82756	0.36839
C	8.15704	-0.992847	0.158568
H	9.86973	-1.58023	1.32124
H	10.13	-1.63262	-0.414179
H	9.15067	-2.89575	0.365069
C	8.31363	0.463668	0.13762
C	6.91427	-1.51002	-0.01166
N	5.79667	-0.710564	-0.203222
H	6.72702	-2.57679	-0.00707572
N	7.12068	1.1884	-0.0631711
C	5.83869	0.681488	-0.239553
H	7.20584	2.19728	-0.0812901
H	4.88234	-1.11906	-0.327668
O	4.82904	1.38623	-0.412298
O	9.39756	1.06448	0.281453
