30
  This energy is -1.7371e-05 and Call times are: 12473
C	-0.735434	-0.118957	1.16791
N	-0.0896929	-1.22958	1.61245
C	0.907331	-1.75452	0.859305
C	-0.337781	0.441736	-0.064102
C	0.709562	-0.20202	-0.743567
N	1.36853	-1.30425	-0.327602
H	1.38779	-2.63829	1.25951
N	-1.73131	0.401892	1.92442
H	-1.96537	-0.047731	2.79427
H	-2.22826	1.22336	1.62252
N	-0.788682	1.5548	-0.782879
C	-0.0291101	1.57901	-1.86978
N	0.895548	0.538405	-1.8983
H	-0.0972765	2.30957	-2.6587
H	1.57827	0.343178	-2.61271
C	20.609	0.853467	2.12534
C	19.8248	0.231369	1.00577
H	19.9401	1.24418	2.90078
H	21.1962	1.70569	1.76442
H	21.2902	0.130916	2.58486
C	18.8666	1.07698	0.289337
C	19.9535	-1.06391	0.622877
N	19.2132	-1.60853	-0.4164
H	20.6423	-1.74407	1.10873
N	18.1636	0.43258	-0.749491
C	18.2784	-0.890541	-1.15906
H	17.4958	0.998779	-1.25834
H	19.3269	-2.57521	-0.682758
O	17.6215	-1.39111	-2.0885
O	18.653	2.28015	0.540946
