30
  This energy is 0.000846715 and Call times are: 4435
C	-1.08381	-0.856699	-0.102255
N	-0.689421	-1.68161	0.903749
C	0.465189	-1.41088	1.55981
C	-0.270147	0.250802	-0.421254
C	0.900399	0.415373	0.337534
N	1.31715	-0.386019	1.34066
H	0.732302	-2.09917	2.35162
N	-2.2387	-1.13166	-0.754933
H	-2.77247	-1.93877	-0.476988
H	-2.55745	-0.539961	-1.50407
N	-0.390733	1.26495	-1.37824
C	0.683407	2.02172	-1.19825
N	1.50025	1.55403	-0.172237
H	0.923046	2.90487	-1.76691
H	2.3662	1.95259	0.153169
C	8.48529	2.49262	1.23377
C	8.48448	1.1788	0.50625
H	9.30407	3.1321	0.884396
H	8.64473	2.34417	2.30799
H	7.54123	3.02745	1.09255
C	9.68461	0.343819	0.60052
C	7.43932	0.724387	-0.230014
N	7.47052	-0.495138	-0.890796
H	6.52254	1.29009	-0.342083
N	9.61904	-0.875576	-0.104788
C	8.56132	-1.36136	-0.864278
H	10.4381	-1.46875	-0.0532059
H	6.68005	-0.811531	-1.43247
O	8.57598	-2.452	-1.4611
O	10.7111	0.644088	1.2429
