30
  This energy is -0.0017263 and Call times are: 8182
C	0.459721	0.292777	-1.27357
N	0.558454	-1.00253	-1.6742
C	0.218937	-1.98579	-0.805429
C	0.00591566	0.558603	0.0355407
C	-0.312567	-0.553165	0.832762
N	-0.224687	-1.84839	0.462845
H	0.316136	-2.99861	-1.17529
N	0.800293	1.27193	-2.14571
H	1.11685	1.01327	-3.06576
H	0.73805	2.24036	-1.87893
N	-0.202591	1.7515	0.737243
C	-0.636614	1.36482	1.9293
N	-0.722527	-0.0202449	2.04279
H	-0.900619	2.02561	2.73825
H	-1.02292	-0.553209	2.84298
C	5.98516	-1.06519	-1.89344
C	6.97816	-0.667068	-0.839457
H	6.24739	-0.626194	-2.86293
H	4.98359	-0.694855	-1.64627
H	5.93651	-2.15255	-2.00533
C	7.15663	0.762409	-0.572736
C	7.71571	-1.55322	-0.124142
N	8.62568	-1.15241	0.843412
H	7.63401	-2.62332	-0.270065
N	8.10272	1.0684	0.42725
C	8.86875	0.179463	1.17193
H	8.242	2.05111	0.628001
H	9.16281	-1.83089	1.36255
O	9.68728	0.524979	2.04172
O	6.54251	1.67712	-1.15816
