30
  This energy is 9.0175e-05 and Call times are: 11747
C	0.615783	0.0360774	1.24038
N	0.429276	1.36831	1.43643
C	-0.205516	2.08968	0.480649
C	0.13814	-0.540606	0.0446971
C	-0.50178	0.32079	-0.86168
N	-0.701185	1.64536	-0.694551
H	-0.327551	3.14536	0.687242
N	1.25087	-0.680537	2.19876
H	1.56687	-0.206852	3.02904
H	1.40408	-1.66848	2.08303
N	0.169981	-1.84976	-0.449219
C	-0.437258	-1.77629	-1.62597
N	-0.864562	-0.48569	-1.92668
H	-0.596343	-2.60537	-2.29536
H	-1.34711	-0.176081	-2.75486
C	9.8918	-2.74269	-0.0218348
C	10.1731	-1.28026	0.172155
H	10.734	-3.24022	-0.516347
H	9.02054	-2.89022	-0.670321
H	9.70382	-3.24289	0.932996
C	10.4448	-0.471926	-1.01913
C	10.1896	-0.669026	1.38337
N	10.4534	0.68529	1.52858
H	9.99766	-1.20619	2.30406
N	10.7008	0.891932	-0.768109
C	10.7232	1.53936	0.461485
H	10.8911	1.46952	-1.5778
H	10.4601	1.11719	2.4406
O	10.9578	2.75181	0.605732
O	10.4597	-0.909735	-2.18732
