30
  This energy is -0.00136526 and Call times are: 8249
C	0.296448	-1.17092	-0.678302
N	0.354347	-0.594488	-1.90812
C	0.132154	0.737834	-2.01944
C	0.00617109	-0.353279	0.434156
C	-0.203061	1.01197	0.178526
N	-0.15213	1.61178	-1.0297
H	0.190268	1.14538	-3.02072
N	0.519301	-2.50301	-0.572355
H	0.721478	-3.02874	-1.40682
H	0.483446	-2.95897	0.32415
N	-0.122653	-0.630305	1.8
C	-0.402998	0.542376	2.35236
N	-0.464049	1.57214	1.4172
H	-0.56972	0.709517	3.40357
H	-0.659204	2.54551	1.5877
C	4.24835	0.187686	2.71561
C	4.74656	-0.00624125	1.31218
H	3.25048	-0.248504	2.83965
H	4.15224	1.25361	2.95218
H	4.92221	-0.2715	3.4452
C	3.94864	0.555188	0.21924
C	5.88882	-0.669363	1.00164
N	6.32161	-0.831418	-0.306522
H	6.52566	-1.10898	1.75942
N	4.47122	0.338214	-1.07247
C	5.63701	-0.336727	-1.41445
H	3.93547	0.718085	-1.84324
H	7.17519	-1.32886	-0.512216
O	6.03636	-0.488965	-2.58203
O	2.88204	1.18504	0.368261
