30
  This energy is -0.0019408 and Call times are: 4752
C	-1.30703	-0.286889	0.358318
N	-1.07523	-1.59444	0.649254
C	0.179496	-2.08621	0.505472
C	-0.226187	0.505291	-0.0828031
C	1.02228	-0.129783	-0.187834
N	1.28231	-1.42415	0.0935421
H	0.308698	-3.13277	0.750553
N	-2.56295	0.199834	0.503677
H	-3.28928	-0.419939	0.822925
H	-2.76639	1.16344	0.296343
N	-0.133632	1.85154	-0.454179
C	1.14195	2.02123	-0.775095
N	1.88822	0.85444	-0.632462
H	1.57974	2.94641	-1.11146
H	2.87118	0.728476	-0.812766
C	5.30525	1.83366	1.03392
C	6.31199	0.787201	0.650733
H	4.36641	1.69155	0.4864
H	5.66603	2.8359	0.775581
H	5.09033	1.80672	2.10645
C	6.70417	0.698525	-0.758071
C	6.87563	-0.0765499	1.5323
N	7.80344	-1.03284	1.14562
H	6.63127	-0.0663708	2.58741
N	7.65191	-0.303861	-1.05081
C	8.24216	-1.19866	-0.166217
H	7.93746	-0.3828	-2.01913
H	8.20885	-1.66431	1.82034
O	9.07472	-2.05999	-0.49919
O	6.26247	1.43066	-1.66661
