30
  This energy is -0.00185306 and Call times are: 5635
C	-0.556929	-1.13062	0.574953
N	0.398734	-1.98628	0.124826
C	1.41731	-1.4974	-0.623739
C	-0.44643	0.235808	0.241725
C	0.659003	0.60893	-0.540464
N	1.62228	-0.216892	-1.00121
H	2.15041	-2.22139	-0.956067
N	-1.57299	-1.62425	1.32282
H	-1.5921	-2.61047	1.52434
H	-2.29568	-1.01631	1.67072
N	-1.24338	1.34678	0.540837
C	-0.630284	2.36444	-0.0485453
N	0.527034	1.97544	-0.717846
H	-0.966715	3.38776	-0.0286416
H	1.16143	2.56004	-1.23783
C	4.86669	1.56499	-0.913325
C	6.00971	0.830719	-0.273201
H	4.03124	0.885465	-1.11748
H	5.16587	1.98733	-1.87951
H	4.50671	2.37732	-0.274743
C	6.60234	-0.288354	-1.01
C	6.52145	1.14441	0.943617
N	7.57883	0.445314	1.5076
H	6.13147	1.95886	1.54166
N	7.67043	-0.934645	-0.354122
C	8.21085	-0.631699	0.889957
H	8.09519	-1.71136	-0.845755
H	7.94215	0.697862	2.41455
O	9.158	-1.24957	1.40673
O	6.22677	-0.678085	-2.13411
