30
  This energy is -0.000737187 and Call times are: 5495
C	0.745321	-0.638427	-0.977721
N	0.692989	0.387603	-1.868
C	0.0225924	1.51599	-1.53012
C	0.0963605	-0.483375	0.265328
C	-0.562126	0.737324	0.487392
N	-0.630961	1.77244	-0.376304
H	0.0121027	2.30139	-2.27516
N	1.41668	-1.76418	-1.32024
H	1.85792	-1.80963	-2.22403
H	1.47342	-2.54105	-0.682934
N	-0.0343595	-1.32913	1.37279
C	-0.755262	-0.631956	2.24063
N	-1.1026	0.626662	1.75699
H	-1.05365	-0.975214	3.2173
H	-1.64304	1.33642	2.22472
C	6.04237	2.33205	-1.506
C	6.11881	1.15507	-0.576319
H	5.67911	2.0265	-2.49398
H	7.03436	2.77111	-1.66269
H	5.37648	3.10705	-1.11458
C	6.97487	0.0312333	-0.964326
C	5.44237	1.07494	0.597104
N	5.53458	-0.0277282	1.43404
H	4.79254	1.86873	0.944521
N	7.00221	-1.04087	-0.0486155
C	6.31912	-1.14521	1.15723
H	7.58795	-1.82869	-0.296965
H	5.02144	-0.0638428	2.30222
O	6.3929	-2.12704	1.91649
O	7.64787	-0.0208818	-2.01357
