30
  This energy is -0.000445075 and Call times are: 9828
C	-0.0148047	0.677162	1.20841
N	0.590776	1.7979	0.733772
C	0.945508	1.84861	-0.5733
C	-0.248877	-0.389712	0.315468
C	0.168781	-0.206124	-1.01302
N	0.771579	0.893612	-1.51241
H	1.42409	2.76353	-0.898748
N	-0.367426	0.631448	2.51567
H	-0.171324	1.42825	3.09898
H	-0.817256	-0.184128	2.89698
N	-0.836356	-1.64881	0.483994
C	-0.772955	-2.20894	-0.716475
N	-0.173903	-1.38016	-1.66143
H	-1.13599	-3.19306	-0.962357
H	-0.0110926	-1.57729	-2.63572
C	4.53723	1.10798	0.735907
C	5.77689	0.350005	0.356238
H	4.24201	1.79887	-0.0621607
H	4.71194	1.72097	1.6276
H	3.70155	0.430931	0.937107
C	6.98559	1.12161	0.0561431
C	5.8394	-1.00298	0.275902
N	7.00128	-1.67334	-0.078335
H	4.98415	-1.63404	0.484179
N	8.11343	0.350442	-0.293084
C	8.20114	-1.03375	-0.381908
H	8.96036	0.863699	-0.504508
H	7.02281	-2.68086	-0.131141
O	9.23559	-1.64696	-0.697828
O	7.06203	2.36635	0.0928959
