30
  This energy is -0.0047772 and Call times are: 9850
C	-1.2294	-0.278418	-0.574542
N	-1.05584	0.537207	-1.64818
C	0.0992389	1.23722	-1.76052
C	-0.194583	-0.361203	0.380796
C	0.949963	0.417537	0.142886
N	1.15029	1.23523	-0.912302
H	0.185572	1.87107	-2.63392
N	-2.38575	-0.975989	-0.466869
H	-3.08401	-0.871042	-1.18451
H	-2.54409	-1.58805	0.316212
N	-0.0641119	-1.0894	1.56889
C	1.13209	-0.755473	2.03417
N	1.79047	0.15404	1.21076
H	1.57103	-1.12987	2.94407
H	2.70386	0.556181	1.34714
C	4.62723	2.5332	-0.945996
C	5.00383	1.11808	-0.612742
H	5.41677	3.22967	-0.64114
H	3.7226	2.83431	-0.405295
H	4.44911	2.65662	-2.01851
C	5.27421	0.794395	0.790297
C	5.10727	0.127597	-1.53424
N	5.45792	-1.17073	-1.19329
H	4.92152	0.297147	-2.58772
N	5.62208	-0.550093	1.03528
C	5.73423	-1.5804	0.109288
H	5.81317	-0.796055	1.99882
H	5.52826	-1.89044	-1.89715
O	6.04725	-2.74777	0.401143
O	5.21442	1.60999	1.73252
