30
  This energy is 0.000181835 and Call times are: 12891
C	1.05176	0.883434	0.17994
N	0.333912	1.79288	0.891044
C	-0.975816	1.5469	1.13793
C	0.39906	-0.282646	-0.272393
C	-0.961145	-0.413008	0.0529803
N	-1.69897	0.471883	0.756377
H	-1.50021	2.3032	1.70808
N	2.36058	1.13398	-0.0641587
H	2.765	1.9862	0.287629
H	2.91863	0.480179	-0.587633
N	0.843183	-1.38582	-1.01037
C	-0.226401	-2.16144	-1.12566
N	-1.34735	-1.62157	-0.500609
H	-0.254421	-3.10803	-1.63941
H	-2.27199	-2.01777	-0.449024
C	7.01964	2.00374	1.07767
C	8.00197	1.06432	0.438942
H	6.93356	1.80737	2.15258
H	6.01716	1.86641	0.656283
H	7.31643	3.04748	0.937075
C	7.74002	-0.373434	0.542094
C	9.11318	1.47104	-0.224916
N	10.0017	0.576659	-0.804135
H	9.3673	2.51773	-0.338708
N	8.69961	-1.19994	-0.0781965
C	9.84357	-0.806877	-0.762607
H	8.53812	-2.19787	-0.0191751
H	10.8216	0.903793	-1.29299
O	10.6477	-1.59744	-1.28633
O	6.75768	-0.877386	1.12313
