30
  This energy is -0.000322658 and Call times are: 13809
C	-1.35133	-0.176162	0.248796
N	-1.65793	1.14812	0.23018
C	-0.669179	2.04748	0.00574765
C	-0.0107001	-0.558709	0.0326345
C	0.914509	0.474903	-0.187942
N	0.6399	1.79634	-0.212061
H	-0.967848	3.08807	0.0013389
N	-2.34324	-1.07113	0.473546
H	-3.27931	-0.730836	0.620449
H	-2.14813	-2.05827	0.493337
N	0.61818	-1.80833	-0.00988219
C	1.89264	-1.53143	-0.25062
N	2.12914	-0.164308	-0.367688
H	2.67867	-2.2616	-0.349524
H	3.00801	0.293448	-0.54838
C	10.5023	-1.04726	2.51239
C	10.3245	-0.525464	1.11542
H	9.78834	-1.85185	2.72271
H	10.3091	-0.260573	3.25075
H	11.5151	-1.4307	2.66912
C	9.01594	0.0239628	0.751761
C	11.3034	-0.534687	0.17593
N	11.1064	-0.0447348	-1.10704
H	12.2931	-0.925827	0.37695
N	8.9154	0.496481	-0.573118
C	9.90251	0.497416	-1.55147
H	8.01916	0.880812	-0.845977
H	11.8505	-0.0624979	-1.78853
O	9.7396	0.933355	-2.70443
O	8.03465	0.0910801	1.51931
