30
  This energy is -0.00130381 and Call times are: 10116
C	1.137	-0.789632	0.0524358
N	2.01267	0.2498	0.0814112
C	1.52961	1.51576	0.0526899
C	-0.24334	-0.504062	-0.00656163
C	-0.60841	0.85209	-0.031033
N	0.237177	1.90394	-0.00338661
H	2.26969	2.3055	0.0777933
N	1.6249	-2.05315	0.0813398
H	2.62183	-2.18717	0.12345
H	1.00226	-2.8436	0.0610928
N	-1.3754	-1.32601	-0.047634
C	-2.39757	-0.482366	-0.0957004
N	-1.99151	0.849447	-0.0881487
H	-3.43593	-0.766789	-0.136624
H	-2.57559	1.66954	-0.117955
C	5.3003	-1.61054	-1.68493
C	6.08532	-0.606708	-0.890265
H	4.54183	-2.09629	-1.06029
H	5.95192	-2.40888	-2.05834
H	4.8006	-1.14144	-2.53786
C	6.81352	-1.08506	0.287574
C	6.15718	0.712124	-1.20082
N	6.89181	1.6144	-0.445142
H	5.64395	1.1327	-2.05685
N	7.52973	-0.0930889	0.98881
C	7.61792	1.2614	0.690225
H	8.04072	-0.401865	1.80671
H	6.9299	2.59097	-0.69657
O	8.27251	2.08045	1.35848
O	6.83025	-2.26893	0.680943
