30
  This energy is 0.000282332 and Call times are: 10753
C	1.17091	0.448242	-0.589142
N	1.75287	-0.777993	-0.664877
C	1.07477	-1.85592	-0.201093
C	-0.119943	0.546028	-0.0283309
C	-0.70994	-0.649564	0.413803
N	-0.15732	-1.87958	0.351716
H	1.58385	-2.80764	-0.285464
N	1.85286	1.52254	-1.0541
H	2.77113	1.38302	-1.44256
H	1.44903	2.44344	-1.01203
N	-0.973592	1.63359	0.189297
C	-2.05221	1.10303	0.749629
N	-1.94731	-0.276141	0.909481
H	-2.92634	1.65277	1.05696
H	-2.62927	-0.901714	1.30722
C	9.36994	-0.273245	-1.79516
C	10.5764	0.0034355	-0.9446
H	8.44631	-0.107635	-1.2287
H	9.35174	-1.32043	-2.11837
H	9.35297	0.3656	-2.68332
C	10.7402	-0.776613	0.284652
C	11.5182	0.931193	-1.24965
N	12.622	1.16283	-0.441678
H	11.4593	1.54234	-2.14189
N	11.8925	-0.468194	1.03691
C	12.8695	0.476189	0.744993
H	12.0257	-0.9958	1.8909
H	13.3093	1.85871	-0.690104
O	13.8632	0.693659	1.45986
O	9.94921	-1.65721	0.678836
