30
  This energy is -0.004979 and Call times are: 9939
C	-1.27873	-0.340349	-0.409923
N	-1.82557	0.875486	-0.143872
C	-1.03492	1.85477	0.358841
C	0.0947464	-0.530925	-0.149925
C	0.798447	0.567454	0.371027
N	0.283196	1.78469	0.644934
H	-1.52068	2.80273	0.552359
N	-2.07328	-1.31587	-0.91233
H	-3.04605	-1.11344	-1.07461
H	-1.69811	-2.22646	-1.11964
N	0.940413	-1.63465	-0.309621
C	2.12556	-1.20868	0.106135
N	2.0979	0.117442	0.529576
H	3.02604	-1.79989	0.125435
H	2.86498	0.66407	0.8865
C	7.6222	-0.73495	2.40841
C	7.11965	-0.398629	1.03373
H	6.95749	-1.45286	2.90254
H	7.64371	0.156754	3.04543
H	8.62934	-1.16107	2.37183
C	5.78005	0.183224	0.918402
C	7.83364	-0.602825	-0.101809
N	7.33995	-0.281064	-1.35783
H	8.82931	-1.02892	-0.0892386
N	5.36869	0.475481	-0.398432
C	6.08132	0.275441	-1.57474
H	4.44551	0.878668	-0.501428
H	7.89042	-0.44243	-2.18807
O	5.65111	0.559332	-2.70621
O	5.02286	0.421239	1.88099
