30
  This energy is -0.00240997 and Call times are: 9261
C	0.883397	0.425369	0.978623
N	1.19338	1.59998	0.368491
C	0.608879	1.89761	-0.81752
C	-0.0377586	-0.437053	0.3477
C	-0.569273	-0.00678383	-0.879241
N	-0.280766	1.15222	-1.50826
H	0.890814	2.84472	-1.25971
N	1.47035	0.132535	2.16399
H	2.1194	0.792535	2.55987
H	1.26149	-0.729074	2.64034
N	-0.555803	-1.68732	0.704524
C	-1.38005	-2.00096	-0.285992
N	-1.42735	-1.01939	-1.27238
H	-1.96076	-2.90638	-0.347339
H	-1.97433	-1.02484	-2.11818
C	7.12563	-1.60873	2.17252
C	6.91403	-0.746017	0.961578
H	6.53758	-2.53107	2.10264
H	6.79036	-1.09552	3.08115
H	8.17982	-1.87618	2.29256
C	5.54875	-0.303975	0.666599
C	7.91199	-0.355268	0.129517
N	7.68286	0.442579	-0.982142
H	8.94327	-0.645639	0.288265
N	5.41881	0.502456	-0.482952
C	6.42457	0.914898	-1.34892
H	4.48323	0.819506	-0.705619
H	8.44202	0.720226	-1.58623
O	6.2332	1.6297	-2.34809
O	4.54496	-0.591845	1.34932
