30
  This energy is 0.000810766 and Call times are: 9636
C	-1.3453	-0.235785	0.231513
N	-1.26059	-0.13847	1.58481
C	-0.0560263	0.119221	2.15004
C	-0.16995	-0.0634752	-0.52955
C	1.01209	0.198886	0.182461
N	1.12665	0.301006	1.52359
H	-0.0448029	0.186444	3.2305
N	-2.55163	-0.493496	-0.328583
H	-3.35138	-0.605717	0.272592
H	-2.64682	-0.571387	-1.32747
N	0.0755104	-0.100948	-1.90694
C	1.37594	0.133668	-2.01968
N	1.99334	0.322654	-0.786078
H	1.92048	0.178774	-2.94823
H	2.96638	0.513939	-0.60943
C	6.50333	-0.341403	-2.70179
C	6.67905	-0.212938	-1.21584
H	7.2293	-1.0473	-3.12141
H	6.68048	0.618445	-3.20049
H	5.49623	-0.685289	-2.95618
C	7.98016	0.239894	-0.717399
C	5.7047	-0.491719	-0.313699
N	5.89946	-0.362837	1.05389
H	4.72047	-0.830683	-0.612818
N	8.07903	0.339067	0.685838
C	7.09646	0.0594425	1.62814
H	8.97016	0.650523	1.05229
H	5.15888	-0.576292	1.7053
O	7.25751	0.170828	2.85597
O	8.95676	0.528068	-1.43835
