30
  This energy is -0.00206317 and Call times are: 5102
C	-0.471583	-1.30173	-0.0461821
N	0.145287	-1.61924	-1.21525
C	0.899143	-0.679298	-1.83578
C	-0.299443	-0.00125304	0.472936
C	0.507868	0.875164	-0.270814
N	1.13218	0.588584	-1.43283
H	1.3677	-0.984543	-2.76278
N	-1.22399	-2.2448	0.570157
H	-1.30535	-3.15401	0.145542
H	-1.69317	-2.04039	1.43676
N	-0.786523	0.626178	1.6253
C	-0.282997	1.85206	1.57479
N	0.508568	2.05817	0.448021
H	-0.450481	2.62277	2.30877
H	0.997365	2.89921	0.186606
C	8.10662	1.319	0.244212
C	6.88606	0.459381	0.0807669
H	8.12653	1.78456	1.23631
H	8.10706	2.13906	-0.483031
H	9.02439	0.737641	0.113943
C	5.57535	1.09746	0.226703
C	6.92946	-0.868809	-0.193009
N	5.78221	-1.63541	-0.337874
H	7.86365	-1.40348	-0.313359
N	4.47139	0.235667	0.0615365
C	4.49122	-1.12545	-0.218722
H	3.55521	0.656014	0.158143
H	5.84039	-2.62205	-0.541598
O	3.47117	-1.82391	-0.351214
O	5.39703	2.30655	0.477406
