30
  This energy is -0.00328693 and Call times are: 13357
C	0.645408	-1.19932	-0.253205
N	1.29864	-0.760807	-1.36184
C	1.11262	0.518042	-1.77023
C	-0.201923	-0.299794	0.427418
C	-0.304646	0.996907	-0.102709
N	0.330699	1.46015	-1.19994
H	1.65629	0.815279	-2.65799
N	0.834724	-2.47847	0.150894
H	1.45354	-3.06842	-0.380726
H	0.365382	-2.83274	0.967664
N	-0.996951	-0.435274	1.57129
C	-1.5645	0.753517	1.72475
N	-1.18104	1.65947	0.739415
H	-2.24922	1.01742	2.51359
H	-1.47331	2.61823	0.63966
C	8.11874	1.1732	-1.03991
C	6.98518	0.455235	-0.365384
H	7.99404	2.25945	-0.962998
H	8.14721	0.939549	-2.11042
H	9.08227	0.901224	-0.598445
C	5.62658	0.716162	-0.847594
C	7.14845	-0.417197	0.660837
N	6.07921	-1.06448	1.26299
H	8.124	-0.655877	1.06632
N	4.60894	0.0110849	-0.172347
C	4.7518	-0.885971	0.879532
H	3.66163	0.176406	-0.489633
H	6.22626	-1.70943	2.02506
O	3.80266	-1.47282	1.42784
O	5.34019	1.49328	-1.78067
