30
  This energy is -0.00517092 and Call times are: 6363
C	1.31916	-0.175683	-0.3847
N	1.64249	1.14389	-0.337119
C	0.690854	2.04017	0.0205251
C	0.000626519	-0.556736	-0.0581397
C	-0.886467	0.473322	0.295506
N	-0.594485	1.79006	0.351499
H	1.00143	3.07705	0.0422159
N	2.27396	-1.06759	-0.742769
H	3.19588	-0.728603	-0.963547
H	2.06565	-2.05122	-0.787322
N	-0.63674	-1.80188	-0.0107455
C	-1.87891	-1.52582	0.363021
N	-2.08623	-0.163501	0.562448
H	-2.66089	-2.25332	0.504479
H	-2.93813	0.292731	0.846572
C	9.11819	-0.292175	1.96857
C	8.04216	-0.317512	0.921215
H	8.82288	0.335927	2.8169
H	10.0422	0.14127	1.56887
H	9.33749	-1.29788	2.33966
C	7.63693	0.958232	0.325683
C	7.42732	-1.45057	0.498033
N	6.43567	-1.43978	-0.472199
H	7.67769	-2.42648	0.895499
N	6.62317	0.86497	-0.650168
C	5.97969	-0.282191	-1.09908
H	6.32765	1.73526	-1.07523
H	5.99307	-2.29619	-0.770531
O	5.09001	-0.286726	-1.96762
O	8.12128	2.06839	0.62489
