30
  This energy is -0.00743879 and Call times are: 6193
C	-0.581812	-1.25557	-0.0638444
N	-0.290578	-1.46433	-1.37521
C	0.374151	-0.502667	-2.06091
C	-0.177506	-0.0410326	0.529286
C	0.504086	0.869543	-0.294914
N	0.806915	0.69011	-1.59809
H	0.580466	-0.719947	-3.10123
N	-1.24641	-2.2199	0.617138
H	-1.506	-3.06383	0.133427
H	-1.47654	-2.0951	1.58892
N	-0.319855	0.468995	1.82484
C	0.263223	1.65932	1.77977
N	0.779614	1.95361	0.520638
H	0.343334	2.34319	2.60841
H	1.26448	2.78934	0.235924
C	4.88663	0.645145	2.70851
C	4.81164	0.138632	1.29668
H	3.88764	0.882744	3.09186
H	5.46725	1.57337	2.76015
H	5.34828	-0.0916987	3.37273
C	4.21622	1.01609	0.285767
C	5.26225	-1.08047	0.907248
N	5.17788	-1.51893	-0.406328
H	5.71286	-1.77862	1.60194
N	4.17617	0.481211	-1.01845
C	4.63069	-0.762544	-1.44042
H	3.76856	1.07121	-1.73341
H	5.52029	-2.4304	-0.671529
O	4.56144	-1.1677	-2.61386
O	3.76531	2.1573	0.511334
