30
  This energy is -0.00499123 and Call times are: 5178
C	-1.02389	0.384155	0.850351
N	-0.800559	-0.593366	1.76831
C	0.205934	-1.47573	1.55558
C	-0.194243	0.437978	-0.289449
C	0.811711	-0.537558	-0.386444
N	1.05694	-1.5187	0.507655
H	0.34018	-2.2333	2.31723
N	-2.03118	1.26366	1.06762
H	-2.58602	1.16897	1.90235
H	-2.22153	1.99842	0.406716
N	-0.162484	1.29841	-1.39286
C	0.84016	0.849664	-2.13598
N	1.46566	-0.260431	-1.57463
H	1.15764	1.27601	-3.0731
H	2.24619	-0.7781	-1.94529
C	3.60352	1.47849	1.20847
C	4.60944	0.535677	0.612931
H	3.18544	2.13964	0.440682
H	4.07244	2.12898	1.9557
H	2.78188	0.93591	1.68571
C	5.77287	1.11455	-0.0636219
C	4.50116	-0.815754	0.666179
N	5.44875	-1.65971	0.105227
H	3.66762	-1.30975	1.15018
N	6.67819	0.175892	-0.60028
C	6.58844	-1.21038	-0.558173
H	7.49011	0.55434	-1.07248
H	5.34597	-2.66221	0.157932
O	7.43017	-1.97799	-1.05634
O	5.99109	2.33722	-0.18209
