30
  This energy is -0.00481457 and Call times are: 4164
C	0.856899	-0.889662	-0.627102
N	1.65974	0.065591	-1.16655
C	1.37637	1.37002	-0.932009
C	-0.241766	-0.479737	0.157283
C	-0.421274	0.903754	0.32084
N	0.358157	1.87411	-0.20172
H	2.04721	2.089	-1.38489
N	1.14442	-2.1921	-0.864508
H	1.94417	-2.41624	-1.43349
H	0.569105	-2.92247	-0.479178
N	-1.23442	-1.19512	0.836786
C	-1.99318	-0.262128	1.39597
N	-1.54718	1.02697	1.11669
H	-2.86294	-0.450842	2.00314
H	-1.95143	1.89665	1.42463
C	7.74532	1.26641	2.38225
C	7.45037	0.446829	1.15884
H	6.82275	1.50725	2.92286
H	8.20379	2.22397	2.10971
H	8.42006	0.738553	3.06294
C	6.55805	1.02169	0.149037
C	7.96164	-0.790387	0.937886
N	7.66894	-1.52222	-0.203862
H	8.62698	-1.27459	1.64211
N	6.32233	0.20184	-0.973893
C	6.8339	-1.06642	-1.22163
H	5.70817	0.579771	-1.6848
H	8.0618	-2.44088	-0.345574
O	6.58005	-1.73278	-2.24018
O	6.02309	2.14588	0.230042
