30
  This energy is -0.00276355 and Call times are: 4730
C	0.798795	-1.0832	0.328083
N	1.77427	-0.800383	-0.575543
C	1.63835	0.290692	-1.36796
C	-0.318132	-0.224507	0.402149
C	-0.333509	0.870861	-0.477029
N	0.61897	1.1766	-1.38339
H	2.44337	0.469544	-2.06938
N	0.93938	-2.17494	1.11782
H	1.76185	-2.74615	1.01364
H	0.234546	-2.41087	1.79639
N	-1.46511	-0.236339	1.20413
C	-2.15398	0.828156	0.815301
N	-1.51582	1.53547	-0.200138
H	-3.10336	1.13562	1.2214
H	-1.83554	2.37292	-0.659551
C	6.69474	-0.712983	2.55451
C	6.20886	-0.510209	1.14801
H	5.99683	-0.273	3.27613
H	7.65788	-0.213692	2.71084
H	6.81176	-1.77579	2.78685
C	6.00328	0.86508	0.686797
C	5.95079	-1.52484	0.284966
N	5.50226	-1.30353	-1.00913
H	6.08103	-2.56428	0.560052
N	5.54673	0.985985	-0.641973
C	5.27594	-0.0368357	-1.54313
H	5.39794	1.92826	-0.981657
H	5.31724	-2.07512	-1.63264
O	4.87393	0.147409	-2.70517
O	6.20281	1.88428	1.37816
