30
  This energy is -0.00117374 and Call times are: 1717
C	-0.895045	-0.557959	-0.898113
N	0.0490393	-1.19819	-1.63763
C	1.35179	-1.08001	-1.28306
C	-0.475716	0.205408	0.21175
C	0.904804	0.243683	0.468115
N	1.86417	-0.380694	-0.247388
H	2.0617	-1.60976	-1.9055
N	-2.19585	-0.679248	-1.25667
H	-2.42709	-1.23981	-2.06035
H	-2.91806	-0.217458	-0.729352
N	-1.17889	0.966414	1.15264
C	-0.241623	1.45093	1.95617
N	1.03867	1.04548	1.58858
H	-0.421136	2.08896	2.80556
H	1.90935	1.27915	2.03792
C	9.86848	-1.93137	-1.34105
C	8.99932	-0.838911	-0.78741
H	9.5547	-2.9105	-0.961264
H	10.9106	-1.79736	-1.02898
H	9.83265	-1.95422	-2.43442
C	8.94288	-0.680906	0.668009
C	8.26688	0.00562138	-1.55633
N	7.47301	1.00537	-1.01308
H	8.26216	-0.0551331	-2.63769
N	8.10939	0.36198	1.12228
C	7.35098	1.23819	0.355059
H	8.0556	0.4892	2.12544
H	6.93718	1.62143	-1.60612
O	6.6358	2.13822	0.828744
O	9.56575	-1.38899	1.48485
