30
  This energy is 0.0010147 and Call times are: 10442
C	-0.41903	-0.717744	-1.10828
N	-0.0409067	0.219567	-2.01743
C	0.53293	1.36605	-1.57795
C	-0.196624	-0.455111	0.2599
C	0.406948	0.772562	0.578553
N	0.792556	1.7212	-0.300973
H	0.814752	2.07796	-2.34332
N	-0.992179	-1.86202	-1.55267
H	-1.12208	-1.98638	-2.54325
H	-1.28289	-2.57495	-0.9045
N	-0.463489	-1.19492	1.41762
C	-0.029878	-0.428687	2.40947
N	0.506956	0.774539	1.95922
H	-0.0749414	-0.682645	3.45552
H	0.898516	1.51809	2.51456
C	6.61131	0.656024	2.71055
C	6.86824	0.184274	1.30809
H	5.56431	0.494046	2.99152
H	6.79304	1.73324	2.79976
H	7.24961	0.134481	3.43014
C	6.08721	0.792204	0.227905
C	7.77884	-0.769066	0.98736
N	7.99212	-1.18307	-0.319529
H	8.3895	-1.25945	1.73548
N	6.37665	0.305333	-1.06355
C	7.30324	-0.668789	-1.41582
H	5.84818	0.712017	-1.82562
H	8.67552	-1.89424	-0.532961
O	7.50446	-1.04881	-2.58243
O	5.22134	1.67624	0.387033
