30
  This energy is 6.005e-06 and Call times are: 3278
C	0.314036	0.267246	-1.32249
N	-0.76692	-0.372916	-1.84192
C	-1.64741	-0.964232	-0.998155
C	0.473178	0.2884	0.0791431
C	-0.512924	-0.363569	0.8378
N	-1.59539	-1.00645	0.350811
H	-2.48973	-1.4597	-1.46404
N	1.1912	0.856718	-2.17012
H	1.01827	0.804353	-3.16055
H	2.00104	1.33828	-1.81635
N	1.45167	0.848058	0.908722
C	1.06195	0.539118	2.13818
N	-0.121603	-0.194089	2.15476
H	1.5825	0.811379	3.04132
H	-0.615686	-0.544187	2.95969
C	12.8268	1.57538	2.29694
C	12.8182	0.630873	1.12935
H	11.8601	1.56667	2.81353
H	12.991	2.60666	1.96391
H	13.6084	1.31327	3.0164
C	11.8237	0.853202	0.0768218
C	13.676	-0.411879	0.995769
N	13.6417	-1.26698	-0.0962349
H	14.4352	-0.633667	1.7357
N	11.8691	-0.0678508	-0.990081
C	12.737	-1.14179	-1.1483
H	11.1902	0.0672777	-1.72916
H	14.2906	-2.03595	-0.17303
O	12.7173	-1.91534	-2.12151
O	10.9802	1.7725	0.0782092
