30
  This energy is -9.1466e-05 and Call times are: 10885
C	-0.281968	0.714495	1.15283
N	-0.594465	1.87199	0.512026
C	-0.528506	1.91135	-0.841098
C	0.0992919	-0.40097	0.377757
C	0.126027	-0.224016	-1.01544
N	-0.178517	0.911441	-1.67889
H	-0.78748	2.8569	-1.30034
N	-0.349462	0.680313	2.50547
H	-0.629	1.51256	2.99824
H	-0.124292	-0.161643	3.00877
N	0.473089	-1.70505	0.722029
C	0.718842	-2.29808	-0.438486
N	0.52476	-1.44814	-1.52412
H	1.03453	-3.32119	-0.558322
H	0.645627	-1.66244	-2.50089
C	12.3223	2.01651	-0.512553
C	11.3252	0.987682	-0.0621541
H	11.8859	2.67808	-1.26975
H	13.1909	1.53975	-0.981041
H	12.6705	2.62818	0.325213
C	10.7654	0.0884685	-1.07428
C	10.9159	0.84544	1.22361
N	9.99217	-0.115984	1.60722
H	11.2887	1.4759	2.02149
N	9.83601	-0.85316	-0.586153
C	9.40211	-1.01739	0.723935
H	9.43637	-1.48516	-1.26899
H	9.7034	-0.20222	2.5703
O	8.57539	-1.87458	1.08124
O	11.0566	0.113776	-2.28718
