30
  This energy is -0.00215148 and Call times are: 8887
C	1.23704	-0.576182	0.238291
N	1.51245	0.166031	1.34343
C	0.604366	1.08061	1.76268
C	0.0119394	-0.36117	-0.427492
C	-0.838529	0.617522	0.112773
N	-0.592368	1.36888	1.20687
H	0.873621	1.64402	2.64705
N	2.148	-1.48903	-0.176693
H	3.00311	-1.59233	0.344559
H	1.97329	-2.05376	-0.991229
N	-0.558627	-0.945081	-1.56431
C	-1.72572	-0.330802	-1.70372
N	-1.94736	0.62509	-0.715881
H	-2.44207	-0.528428	-2.48381
H	-2.75322	1.21942	-0.606454
C	8.52323	1.4265	1.73199
C	7.55996	0.824074	0.749836
H	9.55448	1.14355	1.49144
H	8.32914	1.05777	2.74578
H	8.45456	2.5185	1.73959
C	7.53352	-0.635403	0.624847
C	6.71708	1.55268	-0.0245093
N	5.83859	0.964887	-0.923169
H	6.68444	2.63448	0.0169352
N	6.60787	-1.1364	-0.31369
C	5.73588	-0.410931	-1.11674
H	6.57273	-2.14321	-0.416271
H	5.22109	1.52846	-1.48835
O	4.94373	-0.924766	-1.92567
O	8.25434	-1.41808	1.27632
