30
  This energy is -0.000101983 and Call times are: 10973
C	-0.571653	-0.78039	-0.991582
N	-0.951486	-1.78584	-0.159193
C	-0.674479	-1.68267	1.16348
C	0.0976563	0.332229	-0.439798
C	0.32165	0.312149	0.946724
N	-0.0433646	-0.670566	1.79714
H	-0.998753	-2.51065	1.78101
N	-0.850878	-0.888298	-2.31285
H	-1.33163	-1.7096	-2.6414
H	-0.582686	-0.160774	-2.95448
N	0.607839	1.50397	-1.0104
C	1.12667	2.17272	0.0106197
N	0.981706	1.49788	1.21986
H	1.61184	3.13223	-0.0579377
H	1.29057	1.79704	2.13074
C	8.93188	-0.447523	-2.60599
C	9.59281	-0.238301	-1.27376
H	8.37658	0.446803	-2.91131
H	8.20185	-1.26357	-2.55598
H	9.66556	-0.683824	-3.3826
C	8.7377	0.0863478	-0.129297
C	10.9312	-0.332571	-1.07211
N	11.511	-0.133031	0.172457
H	11.6208	-0.568966	-1.8732
N	9.41998	0.270204	1.09111
C	10.7875	0.178961	1.32146
H	8.848	0.495374	1.89581
H	12.5095	-0.208739	0.297288
O	11.3199	0.355086	2.43118
O	7.49647	0.202157	-0.179251
