30
  This energy is 0.000599987 and Call times are: 8733
C	-0.918255	-0.991468	-0.304679
N	-2.00254	-0.171749	-0.283247
C	-1.82536	1.14367	-0.0091747
C	0.350565	-0.434612	-0.039407
C	0.39305	0.943338	0.229801
N	-0.664992	1.78115	0.257979
H	-2.72144	1.75118	-0.00485588
N	-1.10067	-2.30553	-0.579145
H	-2.03358	-2.6383	-0.759507
H	-0.317942	-2.93775	-0.602369
N	1.63289	-0.992876	0.013992
C	2.42779	0.027007	0.308692
N	1.7305	1.22379	0.450718
H	3.49652	-0.0338685	0.430645
H	2.10736	2.1314	0.671653
C	8.59541	-1.52172	1.44197
C	9.53152	-0.561538	0.765812
H	9.15119	-2.32905	1.9326
H	7.93282	-2.00074	0.711966
H	7.9796	-1.01689	2.19241
C	10.4245	-1.09028	-0.268348
C	9.59611	0.76184	1.05809
N	10.4732	1.62291	0.414534
H	8.9655	1.21847	1.81101
N	11.2772	-0.137617	-0.863261
C	11.3611	1.2206	-0.580794
H	11.9031	-0.481519	-1.58114
H	10.5025	2.60384	0.649595
O	12.142	2.00312	-1.14981
O	10.4651	-2.28345	-0.630654
