30
  This energy is -0.00125492 and Call times are: 5061
C	-0.721237	1.14465	0.297695
N	-0.679119	1.65301	-0.96241
C	-0.0351999	0.95592	-1.93002
C	-0.0897646	-0.092517	0.544719
C	0.541739	-0.709808	-0.547607
N	0.59987	-0.22982	-1.80793
H	-0.0317939	1.40567	-2.91478
N	-1.36612	1.8453	1.26133
H	-1.79599	2.72246	1.01762
H	-1.4147	1.49547	2.20375
N	0.0450511	-0.867921	1.70206
C	0.741966	-1.92727	1.31351
N	1.06973	-1.88404	-0.0390334
H	1.03591	-2.74484	1.95064
H	1.59056	-2.56593	-0.566623
C	4.399	1.51292	2.34629
C	4.53387	0.860362	1.0004
H	5.15431	1.13129	3.0429
H	3.42367	1.2885	2.79321
H	4.50789	2.59938	2.2756
C	4.41084	-0.597905	0.931722
C	4.76238	1.54282	-0.149801
N	4.88227	0.909324	-1.37828
H	4.86388	2.62092	-0.171257
N	4.54731	-1.14723	-0.359907
C	4.78125	-0.469457	-1.55048
H	4.46561	-2.15407	-0.430581
H	5.05222	1.43904	-2.22022
O	4.89054	-1.02449	-2.65769
O	4.20133	-1.34081	1.91191
