30
  This energy is -0.00782327 and Call times are: 9482
C	1.18704	-0.707781	0.0949344
N	1.56558	-0.494929	-1.19327
C	0.758721	0.233844	-2.00241
C	-0.035218	-0.158158	0.5358
C	-0.77485	0.576351	-0.405722
N	-0.42497	0.804036	-1.68944
H	1.1075	0.372909	-3.01782
N	1.99706	-1.43689	0.899686
H	2.85633	-1.80062	0.5216
H	1.7446	-1.61187	1.8581
N	-0.694245	-0.193274	1.77002
C	-1.80489	0.504564	1.57416
N	-1.90566	0.994219	0.274636
H	-2.56202	0.688342	2.3183
H	-2.6502	1.54848	-0.116581
C	6.51979	-2.33874	-1.42829
C	6.05903	-1.07544	-0.75957
H	6.66459	-3.13919	-0.69364
H	7.48832	-2.18988	-1.91938
H	5.7985	-2.67972	-2.17711
C	6.92213	-0.49286	0.270994
C	4.89354	-0.446801	-1.05515
N	4.49637	0.719956	-0.418135
H	4.20886	-0.822489	-1.80558
N	6.43206	0.691537	0.858974
C	5.24346	1.35264	0.573064
H	7.01307	1.11155	1.57411
H	3.62451	1.16918	-0.655628
O	4.87573	2.39853	1.13592
O	8.01576	-0.969882	0.635645
