30
  This energy is 1.9094e-05 and Call times are: 8491
C	1.37984	0.0207286	0.120971
N	1.61994	-0.630626	-1.04786
C	0.569113	-1.0163	-1.81197
C	0.0407361	0.268172	0.489653
C	-0.952829	-0.185075	-0.393759
N	-0.745023	-0.833545	-1.5593
H	0.816341	-1.53086	-2.73184
N	2.43364	0.404143	0.881153
H	3.36472	0.196176	0.559555
H	2.28857	0.888089	1.75159
N	-0.530186	0.898885	1.60101
C	-1.83746	0.826072	1.3898
N	-2.15043	0.179831	0.196861
H	-2.59554	1.21442	2.04954
H	-3.0662	0.00131452	-0.182745
C	17.0842	0.49319	-2.71233
C	16.8935	0.395591	-1.22588
H	16.1282	0.382144	-3.23693
H	17.7329	-0.311702	-3.07659
H	17.5274	1.45268	-2.99555
C	16.3079	-0.836105	-0.690658
C	17.2315	1.37988	-0.355324
N	17.0419	1.25833	1.01367
H	17.6682	2.31545	-0.682527
N	16.156	-0.86353	0.711072
C	16.4943	0.130666	1.62141
H	15.7531	-1.70598	1.10266
H	17.3016	2.00475	1.64118
O	16.33	0.0347085	2.85012
O	15.9548	-1.81382	-1.38052
