30
  This energy is -0.0139258 and Call times are: 14227
C	-0.920638	-0.300775	0.99045
N	0.00566745	-0.626106	1.93076
C	1.32038	-0.551226	1.6102
C	-0.471027	0.102643	-0.284488
C	0.919002	0.13652	-0.483714
N	1.86126	-0.180369	0.429473
H	2.01517	-0.821136	2.39535
N	-2.23351	-0.377265	1.31585
H	-2.48654	-0.672733	2.24443
H	-2.94314	-0.14302	0.641715
N	-1.1506	0.493555	-1.44389
C	-0.190174	0.756349	-2.31991
N	1.08287	0.557166	-1.79232
H	-0.347493	1.08821	-3.33276
H	1.96719	0.688109	-2.25646
C	6.96783	-0.877714	2.21574
C	6.13501	-0.261094	1.12871
H	8.00303	-1.01674	1.88345
H	6.59089	-1.87246	2.4799
H	6.97172	-0.256388	3.1164
C	6.03161	-0.97874	-0.14435
C	5.47641	0.917936	1.25934
N	4.7148	1.46102	0.234712
H	5.50974	1.50007	2.17207
N	5.23567	-0.34652	-1.12183
C	4.55275	0.858855	-1.0111
H	5.15028	-0.825504	-2.00991
H	4.23395	2.33988	0.356118
O	3.86684	1.35656	-1.9209
O	6.58591	-2.06835	-0.39349
