30
  This energy is -0.00115267 and Call times are: 11349
C	1.03877	-0.362382	0.841818
N	1.97974	0.392649	0.215256
C	1.618	1.13064	-0.862407
C	-0.279893	-0.344897	0.340649
C	-0.519106	0.463528	-0.78285
N	0.393645	1.22283	-1.42513
H	2.40567	1.71305	-1.32328
N	1.40543	-1.09827	1.91857
H	2.364	-1.06556	2.22464
H	0.731972	-1.66737	2.40383
N	-1.45173	-0.993469	0.74688
C	-2.37415	-0.583727	-0.113427
N	-1.86512	0.299788	-1.06156
H	-3.40882	-0.883931	-0.104115
H	-2.36329	0.746085	-1.81471
C	6.64541	1.46126	2.38666
C	6.52814	0.587792	1.17063
H	6.56846	2.52052	2.11565
H	7.62288	1.33422	2.86604
H	5.86583	1.23181	3.11936
C	7.50587	0.776368	0.0959673
C	5.57168	-0.361485	1.01258
N	5.49061	-1.15243	-0.124383
H	4.81829	-0.553446	1.76665
N	7.3402	-0.0744637	-1.01638
C	6.36992	-1.05236	-1.20034
H	8.00554	0.0387357	-1.77132
H	4.7697	-1.85226	-0.218614
O	6.28601	-1.76795	-2.21365
O	8.43237	1.61168	0.116045
