30
  This energy is -6.7526e-05 and Call times are: 1629
C	0.24752	1.3449	0.221398
N	-0.307744	1.77015	-0.944326
C	-0.834154	0.853945	-1.79303
C	0.251734	-0.0384201	0.498487
C	-0.326918	-0.878837	-0.466853
N	-0.884896	-0.486037	-1.63156
H	-1.26326	1.24624	-2.70628
N	0.772355	2.26467	1.06634
H	0.736612	3.23698	0.807637
H	1.19043	1.98133	1.93688
N	0.733337	-0.781548	1.58231
C	0.450257	-2.04019	1.27479
N	-0.191956	-2.15791	0.0450045
H	0.679446	-2.89578	1.88813
H	-0.506744	-3.00237	-0.404867
C	8.56401	-0.877269	0.481412
C	7.23211	-0.237647	0.212414
H	8.80151	-1.62274	-0.286221
H	8.55496	-1.41052	1.43899
H	9.36631	-0.133613	0.504596
C	6.05505	-1.10785	0.151715
C	7.05912	1.09472	0.0232225
N	5.81397	1.65457	-0.223796
H	7.88511	1.79459	0.0547039
N	4.83673	-0.445264	-0.103923
C	4.63537	0.915726	-0.300727
H	4.00979	-1.0279	-0.149992
H	5.7108	2.64897	-0.361229
O	3.52551	1.43039	-0.522618
O	6.0769	-2.34549	0.307699
