30
  This energy is -0.00101668 and Call times are: 5429
C	0.264038	-0.6893	1.17225
N	0.333029	0.417789	1.95817
C	0.144967	1.63569	1.39409
C	-0.00162048	-0.521607	-0.203124
C	-0.176318	0.795895	-0.657758
N	-0.113624	1.9128	0.0977356
H	0.210512	2.48313	2.06462
N	0.452749	-1.90437	1.74091
H	0.638726	-1.95367	2.72912
H	0.407883	-2.74262	1.18573
N	-0.133365	-1.43407	-1.25617
C	-0.381646	-0.681402	-2.31953
N	-0.418957	0.676825	-2.0154
H	-0.540773	-1.05158	-3.31873
H	-0.588395	1.44296	-2.647
C	5.93541	2.71807	-0.322152
C	5.50319	1.28021	-0.288108
H	7.01388	2.79765	-0.500945
H	5.74396	3.20638	0.640287
H	5.41074	3.27395	-1.10507
C	6.11909	0.40417	0.711703
C	4.57871	0.749893	-1.12777
N	4.20128	-0.583936	-1.07036
H	4.08456	1.34008	-1.88972
N	5.66986	-0.932402	0.690474
C	4.72577	-1.49747	-0.158619
H	6.08252	-1.55571	1.37356
H	3.51103	-0.955115	-1.70606
O	4.37834	-2.69059	-0.117865
O	6.9791	0.765244	1.5403
