30
  This energy is -0.000426146 and Call times are: 4995
C	0.230326	1.2102	-0.633562
N	0.654217	1.85976	0.482886
C	0.695573	1.18605	1.65815
C	-0.149994	-0.143605	-0.519822
C	-0.05898	-0.721231	0.757317
N	0.357548	-0.102244	1.88228
H	1.04055	1.75025	2.5153
N	0.190818	1.88806	-1.80587
H	0.476304	2.85344	-1.81768
H	-0.118272	1.435	-2.64973
N	-0.619924	-1.07282	-1.45502
C	-0.806976	-2.18373	-0.755182
N	-0.483267	-2.02823	0.590069
H	-1.16777	-3.11653	-1.15578
H	-0.539578	-2.72098	1.31913
C	4.8628	1.86779	-1.9303
C	5.44195	0.960142	-0.883315
H	3.92425	2.31529	-1.58351
H	4.62144	1.30877	-2.84169
H	5.55748	2.67256	-2.18917
C	4.62704	-0.170298	-0.431189
C	6.67179	1.12807	-0.335392
N	7.17793	0.270938	0.631041
H	7.32607	1.94181	-0.623172
N	5.22843	-0.982815	0.552083
C	6.48446	-0.830764	1.12727
H	4.6825	-1.77049	0.879093
H	8.09606	0.416772	1.02363
O	6.95012	-1.5913	1.99367
O	3.4834	-0.436188	-0.853041
