30
  This energy is -0.00185387 and Call times are: 7160
C	-0.676379	-1.19061	-0.209757
N	-0.61586	-1.13408	-1.56667
C	-0.000119014	-0.0784572	-2.15264
C	-0.0927687	-0.142869	0.533215
C	0.513525	0.890903	-0.199413
N	0.588953	0.973928	-1.54463
H	0.0197083	-0.0831256	-3.23506
N	-1.29295	-2.24787	0.371106
H	-1.68896	-2.9619	-0.217896
H	-1.35411	-2.31841	1.3732
N	0.0131447	0.0923763	1.90883
C	0.668421	1.24178	2.00035
N	0.996389	1.77011	0.754568
H	0.931254	1.73495	2.92147
H	1.49011	2.62661	0.561621
C	5.87665	-0.856598	2.47927
C	5.43805	-0.542759	1.07764
H	5.01132	-0.993749	3.13789
H	6.45894	-0.0291874	2.90084
H	6.48687	-1.76422	2.51257
C	4.61088	0.648517	0.870179
C	5.76349	-1.29749	-0.00189637
N	5.34158	-0.979958	-1.28487
H	6.37117	-2.19032	0.079599
N	4.2334	0.88624	-0.467609
C	4.55406	0.128622	-1.58777
H	3.66116	1.70494	-0.633992
H	5.59688	-1.55725	-2.07221
O	4.18296	0.401814	-2.74257
O	4.2425	1.42479	1.77475
