30
  This energy is -9.7265e-05 and Call times are: 8359
C	-1.16576	-0.747198	-0.0416568
N	-1.58849	-0.257088	-1.23713
C	-0.824887	0.662157	-1.87646
C	0.0554121	-0.275387	0.484177
C	0.747666	0.677643	-0.281028
N	0.353343	1.18205	-1.46942
H	-1.20775	1.01898	-2.82416
N	-1.93264	-1.66587	0.593398
H	-2.79378	-1.95991	0.162622
H	-1.64688	-2.04758	1.4797
N	0.752383	-0.571511	1.66121
C	1.83898	0.186737	1.60421
N	1.88801	0.963626	0.449775
H	2.61364	0.218769	2.35229
H	2.60638	1.61552	0.178517
C	9.05975	1.16693	-0.719616
C	10.4489	0.684604	-0.414673
H	8.4832	1.30551	0.202224
H	8.51319	0.429903	-1.31915
H	9.07746	2.11529	-1.26509
C	10.59	-0.578296	0.314419
C	11.5751	1.35018	-0.774899
N	12.8449	0.87717	-0.477407
H	11.5436	2.28846	-1.315
N	11.9194	-0.974315	0.568562
C	13.0865	-0.310246	0.210055
H	12.0402	-1.84488	1.07149
H	13.6678	1.39054	-0.756242
O	14.2302	-0.722852	0.470028
O	9.63827	-1.28573	0.702118
