30
  This energy is -0.0111285 and Call times are: 13379
C	-0.781201	-1.0033	0.549676
N	0.134783	-1.9914	0.368843
C	1.32378	-1.68678	-0.205905
C	-0.452784	0.302717	0.129172
C	0.813701	0.480712	-0.451653
N	1.74255	-0.479728	-0.643925
H	2.01618	-2.51028	-0.326193
N	-1.96817	-1.31295	1.12463
H	-2.13884	-2.26564	1.40185
H	-2.66679	-0.603655	1.27205
N	-1.1563	1.5119	0.1716
C	-0.330779	2.39639	-0.371614
N	0.876766	1.8271	-0.767099
H	-0.543597	3.44411	-0.504863
H	1.65984	2.28831	-1.20145
C	8.73717	-2.01341	1.30963
C	7.83706	-0.957429	0.735049
H	9.71089	-1.59052	1.58246
H	8.93639	-2.80003	0.572798
H	8.29572	-2.47316	2.19901
C	8.29218	-0.248801	-0.463748
C	6.63182	-0.624666	1.26191
N	5.82361	0.356762	0.706531
H	6.23476	-1.1079	2.14616
N	7.40131	0.729274	-0.952017
C	6.16384	1.08689	-0.430151
H	7.69599	1.23152	-1.78046
H	4.93075	0.58644	1.1169
O	5.42975	1.96396	-0.917773
O	9.37597	-0.458305	-1.04518
