30
  This energy is -0.00242042 and Call times are: 6126
C	-0.528861	-0.652486	-1.10164
N	-0.51992	-1.88787	-0.534344
C	-0.0601461	-2.02454	0.733242
C	-0.0568577	0.439028	-0.342574
C	0.391519	0.158076	0.958596
N	0.412315	-1.05627	1.54776
H	-0.0750118	-3.02915	1.13643
N	-0.989417	-0.521175	-2.36892
H	-1.31206	-1.34163	-2.85507
H	-1.00875	0.380083	-2.81643
N	0.0634163	1.80401	-0.627578
C	0.572661	2.3311	0.477741
N	0.791507	1.38023	1.47103
H	0.801594	3.37426	0.619753
H	1.1679	1.53106	2.39308
C	7.49097	0.78279	1.12396
C	6.27833	0.243276	0.421214
H	7.40424	0.652086	2.20876
H	7.597	1.85961	0.949043
H	8.40367	0.283469	0.784976
C	4.97506	0.814962	0.769154
C	6.32235	-0.739437	-0.513271
N	5.18249	-1.21616	-1.14438
H	7.25128	-1.20586	-0.817586
N	3.87832	0.26483	0.0740247
C	3.89894	-0.740355	-0.88553
H	2.96738	0.645576	0.299008
H	5.24099	-1.94814	-1.83658
O	2.88549	-1.17654	-1.45875
O	4.79701	1.72032	1.60891
