30
  This energy is -0.00146597 and Call times are: 11549
C	-1.11071	-0.0927181	0.822656
N	-0.723561	-1.24577	1.42982
C	0.450088	-1.81724	1.06539
C	-0.269895	0.46171	-0.165274
C	0.918306	-0.232392	-0.447092
N	1.32845	-1.37743	0.13844
H	0.710355	-2.73349	1.57997
N	-2.2847	0.474547	1.1905
H	-2.83749	0.0267025	1.90285
H	-2.59872	1.32814	0.759599
N	-0.376852	1.60979	-0.958578
C	0.722565	1.60533	-1.7003
N	1.543	0.512735	-1.43237
H	0.978544	2.35016	-2.43546
H	2.42616	0.288271	-1.86162
C	5.08351	1.5752	-1.04056
C	6.07633	0.687344	-0.346698
H	4.89099	1.22345	-2.06066
H	5.47047	2.59654	-1.13277
H	4.13325	1.61045	-0.499265
C	7.40169	0.538324	-0.953014
C	5.81539	0.0186801	0.804701
N	6.75538	-0.794684	1.4209
H	4.85746	0.0836544	1.30592
N	8.28566	-0.308157	-0.252483
C	8.04116	-1.0024	0.926423
H	9.20785	-0.425466	-0.653998
H	6.53741	-1.28189	2.27732
O	8.8742	-1.73412	1.48904
O	7.76841	1.09647	-2.00684
