30
  This energy is -0.00581743 and Call times are: 3846
C	0.83684	-0.385916	1.03431
N	1.19926	0.877106	1.38288
C	0.684399	1.92222	0.690417
C	-0.0638623	-0.554786	-0.0383403
C	-0.521342	0.613289	-0.67027
N	-0.179623	1.8785	-0.346768
H	1.00589	2.90563	1.00915
N	1.35426	-1.42717	1.72959
H	1.99241	-1.23681	2.48466
H	1.10536	-2.37388	1.49572
N	-0.62173	-1.69345	-0.630861
C	-1.39696	-1.21984	-1.59709
N	-1.3744	0.170605	-1.66654
H	-1.98903	-1.81965	-2.26823
H	-1.87525	0.761339	-2.31057
C	6.02099	1.80804	2.1355
C	5.80029	0.843163	1.00601
H	6.56838	2.69325	1.79174
H	6.6313	1.35317	2.92417
H	5.07249	2.13346	2.57331
C	6.98037	0.315397	0.316612
C	4.57483	0.435166	0.590439
N	4.40498	-0.458082	-0.457467
H	3.66124	0.785403	1.05495
N	6.70424	-0.584731	-0.733249
C	5.4597	-1.01665	-1.17613
H	7.5058	-0.96209	-1.22368
H	3.48274	-0.746647	-0.748252
O	5.29335	-1.81652	-2.11337
O	8.15958	0.608855	0.599286
