30
  This energy is -0.00146152 and Call times are: 7494
C	0.474464	-0.307191	1.26473
N	0.639531	-1.63418	1.01997
C	0.3248	-2.11948	-0.205709
C	-0.0196993	0.51119	0.227227
C	-0.306122	-0.119911	-0.994532
N	-0.152581	-1.43317	-1.2665
H	0.4751	-3.18226	-0.346922
N	0.790508	0.172956	2.49149
H	1.13863	-0.465907	3.18738
H	0.679385	1.1505	2.70353
N	-0.296549	1.88136	0.157641
C	-0.739362	2.069	-1.07832
N	-0.766158	0.891232	-1.82048
H	-1.05039	3.01504	-1.48946
H	-1.06029	0.77474	-2.77678
C	7.87643	-0.540185	1.07692
C	6.53665	-0.410386	0.410898
H	7.77377	-0.520929	2.16802
H	8.52745	0.300873	0.812002
H	8.37584	-1.47069	0.790567
C	5.74406	0.788275	0.696215
C	6.02187	-1.33699	-0.436058
N	4.77961	-1.18698	-1.03534
H	6.55368	-2.24556	-0.690513
N	4.49739	0.848473	0.0398126
C	3.94997	-0.0867102	-0.830436
H	3.93279	1.66896	0.222696
H	4.41815	-1.89044	-1.66211
O	2.83854	0.0352941	-1.37427
O	6.1008	1.71291	1.45408
