30
  This energy is -0.00360342 and Call times are: 6452
C	0.936512	0.849108	0.566562
N	0.0837392	1.39023	1.47653
C	-1.2031	0.965756	1.50329
C	0.442585	-0.135634	-0.314734
C	-0.911512	-0.483777	-0.179688
N	-1.78097	0.0354567	0.712845
H	-1.83904	1.42917	2.24684
N	2.22178	1.2768	0.543876
H	2.50951	1.98307	1.20114
H	2.87722	0.895555	-0.117912
N	1.04652	-0.870927	-1.34112
C	0.0767929	-1.64344	-1.81201
N	-1.13053	-1.45071	-1.14576
H	0.182198	-2.35002	-2.61848
H	-2.00758	-1.91529	-1.31767
C	6.54215	2.68857	-0.234939
C	6.03972	1.27348	-0.257284
H	7.6348	2.71649	-0.317021
H	6.28997	3.17767	0.712992
H	6.11634	3.27609	-1.05394
C	6.52162	0.359906	0.781734
C	5.16875	0.796294	-1.18175
N	4.72379	-0.517786	-1.17468
H	4.77311	1.4164	-1.97674
N	6.01206	-0.952727	0.704119
C	5.12073	-1.46357	-0.231909
H	6.33201	-1.60125	1.41297
H	4.07546	-0.849252	-1.87336
O	4.71389	-2.63846	-0.237006
O	7.32126	0.671322	1.68736
