30
  This energy is -0.00466067 and Call times are: 10359
C	1.19992	-0.0646472	0.689229
N	0.992848	1.06802	1.41191
C	-0.155815	1.76328	1.22743
C	0.205309	-0.469212	-0.225885
C	-0.937011	0.342881	-0.318787
N	-1.17002	1.47117	0.384664
H	-0.269891	2.65686	1.82787
N	2.3497	-0.756016	0.877313
H	3.01845	-0.411989	1.54665
H	2.53221	-1.59825	0.357477
N	0.114742	-1.559	-1.09939
C	-1.05584	-1.40489	-1.70344
N	-1.73534	-0.269752	-1.26936
H	-1.46126	-2.06752	-2.44997
H	-2.63631	0.0609104	-1.57516
C	8.42593	0.267309	-2.18726
C	7.65015	0.129901	-0.908699
H	8.10746	1.15627	-2.7438
H	8.24857	-0.590685	-2.84588
H	9.50056	0.342915	-1.99572
C	6.19241	0.01712	-1.00172
C	8.22138	0.1047	0.321743
N	7.47561	-0.0232967	1.48462
H	9.29232	0.183414	0.463042
N	5.52447	-0.109019	0.233855
C	6.08725	-0.137202	1.50431
H	4.5158	-0.188539	0.192952
H	7.92376	-0.0395633	2.38863
O	5.43094	-0.251596	2.55411
O	5.54506	0.0265456	-2.06821
