30
  This energy is -0.00235302 and Call times are: 4413
C	-0.0758575	-1.35473	-0.27927
N	1.1279	-1.66569	0.270588
C	1.87295	-0.676483	0.821244
C	-0.499382	-0.00925877	-0.25272
C	0.369666	0.915869	0.348873
N	1.56894	0.636995	0.902187
H	2.82233	-0.978747	1.24476
N	-0.816782	-2.34711	-0.828419
H	-0.455566	-3.28674	-0.81406
H	-1.71206	-2.14884	-1.24324
N	-1.65583	0.624709	-0.721301
C	-1.48516	1.90208	-0.408131
N	-0.275939	2.13566	0.241399
H	-2.18622	2.69228	-0.619949
H	0.0805377	3.01583	0.577288
C	9.75468	1.51213	-0.486116
C	8.51543	0.77893	-0.0593739
H	9.56321	2.11481	-1.38139
H	10.5529	0.809085	-0.750672
H	10.1205	2.17213	0.306219
C	7.90458	-0.146979	-1.01643
C	7.93282	0.925722	1.15716
N	6.78698	0.233061	1.52062
H	8.33131	1.59282	1.91165
N	6.74484	-0.802635	-0.554047
C	6.13076	-0.668525	0.685505
H	6.30608	-1.44765	-1.1997
H	6.37214	0.359274	2.43184
O	5.10429	-1.28304	1.02407
O	8.33912	-0.372722	-2.16394
