30
  This energy is 0.000104474 and Call times are: 3912
C	0.916339	0.695857	-0.771452
N	1.0668	1.72357	0.105616
C	0.363883	1.70566	1.26425
C	0.0307228	-0.349827	-0.435904
C	-0.635106	-0.244137	0.796379
N	-0.506043	0.762626	1.6863
H	0.520955	2.54774	1.92626
N	1.62119	0.718458	-1.92818
H	2.23647	1.49524	-2.10603
H	1.53152	-0.0276187	-2.59769
N	-0.33965	-1.52268	-1.10381
C	-1.20853	-2.10834	-0.290826
N	-1.42517	-1.37811	0.874727
H	-1.70647	-3.04397	-0.484213
H	-2.03558	-1.61187	1.64112
C	8.25643	-0.125727	2.47896
C	9.00469	-0.230512	1.18106
H	7.1972	0.0940734	2.30256
H	8.64624	0.697084	3.08923
H	8.32825	-1.05212	3.0568
C	9.00186	0.935237	0.293693
C	9.67971	-1.33935	0.786394
N	10.3614	-1.40399	-0.420223
H	9.72288	-2.23565	1.3929
N	9.72216	0.771439	-0.90757
C	10.42	-0.352792	-1.3326
H	9.73355	1.5653	-1.53611
H	10.8564	-2.24041	-0.691705
O	11.0351	-0.424038	-2.41082
O	8.42204	2.01279	0.537092
