30
  This energy is -0.00213276 and Call times are: 10995
C	-0.642865	-0.930653	-0.799776
N	-1.89829	-0.483255	-0.531817
C	-2.05456	0.569607	0.307175
C	0.448185	-0.276395	-0.189925
C	0.145769	0.801512	0.658416
N	-1.08874	1.26755	0.942994
H	-3.07464	0.88502	0.486029
N	-0.492017	-1.98337	-1.63905
H	-1.31334	-2.40486	-2.04076
H	0.424351	-2.33779	-1.85714
N	1.83039	-0.486081	-0.256388
C	2.3466	0.445099	0.534379
N	1.37227	1.25303	1.11456
H	3.39773	0.584506	0.725297
H	1.51125	2.02396	1.74776
C	10.2678	-1.78015	-0.624293
C	9.27949	-0.739772	-0.181202
H	10.3931	-1.76134	-1.71303
H	9.9158	-2.78658	-0.370171
H	11.2457	-1.6254	-0.158569
C	7.91948	-0.814289	-0.720847
C	9.57466	0.260523	0.686675
N	8.63786	1.20692	1.07602
H	10.5593	0.374664	1.12316
N	7.04174	0.191049	-0.265275
C	7.32096	1.22391	0.621746
H	6.09598	0.158503	-0.625688
H	8.88163	1.94179	1.72324
O	6.49121	2.07815	0.979081
O	7.51966	-1.68123	-1.52405
