30
  This energy is -0.000270793 and Call times are: 11681
C	-1.06309	0.857473	0.231548
N	-1.03219	0.735966	1.58519
C	-0.100672	-0.069926	2.15058
C	-0.119574	0.135902	-0.529687
C	0.790383	-0.662693	0.182525
N	0.845049	-0.80287	1.52399
H	-0.120323	-0.1305	3.23131
N	-1.99613	1.66426	-0.328712
H	-2.64032	2.15112	0.2726
H	-2.0446	1.77503	-1.32785
N	0.109575	0.0453441	-1.90742
C	1.13428	-0.789012	-2.02016
N	1.58686	-1.24866	-0.78624
H	1.58658	-1.09488	-2.94894
H	2.34671	-1.88584	-0.60953
C	11.2907	0.0951983	2.06167
C	10.3503	0.20086	0.895546
H	11.8652	-0.837211	2.01697
H	10.7384	0.0738687	3.00819
H	11.9916	0.935107	2.08637
C	9.3481	-0.854423	0.727079
C	10.3771	1.21419	-0.00632719
N	9.49354	1.28236	-1.07378
H	11.0911	2.02606	0.0582398
N	8.4971	-0.695763	-0.386165
C	8.50573	0.331802	-1.3219
H	7.79637	-1.41411	-0.52169
H	9.53335	2.04658	-1.7316
O	7.71988	0.405182	-2.28261
O	9.21714	-1.83802	1.48336
