30
  This energy is -3.68e-06 and Call times are: 12561
C	-0.382605	-0.601754	1.18766
N	-0.122481	0.480395	1.96828
C	0.353397	1.60894	1.38796
C	-0.144756	-0.502611	-0.199409
C	0.349379	0.724967	-0.670477
N	0.616775	1.81509	0.0793953
H	0.543358	2.44027	2.05492
N	-0.858155	-1.72741	1.77256
H	-1.00562	-1.73126	2.76847
H	-1.06041	-2.54506	1.22169
N	-0.30533	-1.41209	-1.25104
C	0.0836773	-0.745621	-2.32964
N	0.490461	0.553398	-2.03682
H	0.0944877	-1.13938	-3.33244
H	0.826569	1.25133	-2.68066
C	17.5304	1.11595	1.43192
C	16.4691	0.355155	0.690158
H	17.0999	1.66063	2.28009
H	17.9962	1.86807	0.784831
H	18.3114	0.447892	1.80738
C	15.3513	1.11507	0.124997
C	16.4877	-0.99021	0.51531
N	15.4905	-1.66348	-0.175554
H	17.2832	-1.61251	0.90638
N	14.3901	0.341816	-0.558374
C	14.388	-1.03473	-0.749934
H	13.6085	0.847059	-0.957325
H	15.5267	-2.66517	-0.29243
O	13.5013	-1.6504	-1.36688
O	15.215	2.35202	0.214237
