30
  This energy is -0.000308059 and Call times are: 3344
C	-1.20282	0.549089	0.413236
N	-1.63587	0.862388	-0.836714
C	-0.846241	0.567207	-1.89794
C	0.0559024	-0.0727465	0.552194
C	0.772246	-0.322391	-0.629986
N	0.368483	-0.0230605	-1.88281
H	-1.23882	0.837898	-2.86987
N	-1.99583	0.846218	1.47069
H	-2.88329	1.29052	1.30158
H	-1.70329	0.626867	2.40835
N	0.771992	-0.512484	1.67144
C	1.89338	-1.01502	1.17262
N	1.94702	-0.926262	-0.215877
H	2.69077	-1.44958	1.75234
H	2.68901	-1.2359	-0.822651
C	16.0958	1.26317	-0.0984604
C	14.8399	0.440055	-0.120418
H	16.3422	1.57264	0.923748
H	15.9694	2.18416	-0.679139
H	16.9445	0.707052	-0.508012
C	13.6127	1.0504	0.397326
C	14.7787	-0.831213	-0.590594
N	13.6015	-1.56531	-0.59665
H	15.6471	-1.34271	-0.987201
N	12.4702	0.22524	0.348257
C	12.3836	-1.07755	-0.127969
H	11.6104	0.627325	0.701146
H	13.5813	-2.50965	-0.951848
O	11.3355	-1.74636	-0.13941
O	13.5332	2.20765	0.856681
