30
  This energy is -0.000143688 and Call times are: 3410
C	-0.0364525	-0.817845	1.11751
N	-0.301688	0.182608	1.99888
C	-0.420138	1.45082	1.53578
C	0.104685	-0.490977	-0.247626
C	-0.0423266	0.862689	-0.592586
N	-0.305377	1.8764	0.259103
H	-0.631529	2.20854	2.27956
N	0.0810068	-2.08379	1.58544
H	-0.0313241	-2.24839	2.57229
H	0.276995	-2.84598	0.958101
N	0.372466	-1.268	-1.38049
C	0.385982	-0.400389	-2.38346
N	0.140663	0.904451	-1.96408
H	0.564017	-0.648519	-3.41666
H	0.0997293	1.7347	-2.53295
C	12.2507	2.01218	1.8506
C	11.7632	1.01098	0.842915
H	13.1422	2.53348	1.48357
H	12.5434	1.51669	2.78344
H	11.4813	2.75618	2.07813
C	12.684	-0.0532147	0.435285
C	10.5238	1.03714	0.291593
N	10.104	0.0964985	-0.637846
H	9.79369	1.79513	0.54754
N	12.1651	-0.95935	-0.512567
C	10.9012	-0.952612	-1.09042
H	12.7849	-1.70346	-0.80851
H	9.17671	0.137059	-1.03382
O	10.5123	-1.7892	-1.92395
O	13.8473	-0.190253	0.864846
