30
  This energy is 5.055e-05 and Call times are: 3366
C	-0.522961	-0.865515	-0.946798
N	0.682281	-1.28835	-1.41228
C	1.8126	-0.782963	-0.861086
C	-0.544969	0.0856604	0.094904
C	0.699076	0.526691	0.575388
N	1.90989	0.125507	0.133608
H	2.7446	-1.15346	-1.2687
N	-1.64983	-1.37373	-1.50109
H	-1.56345	-2.05001	-2.24188
H	-2.55695	-1.08067	-1.17833
N	-1.59381	0.709498	0.780192
C	-0.993114	1.50739	1.65278
N	0.395175	1.43705	1.57295
H	-1.49692	2.14905	2.35649
H	1.06833	1.94298	2.12567
C	16.6997	0.683585	2.07498
C	15.8197	0.144506	0.983939
H	16.1018	1.16649	2.85641
H	17.3788	1.45088	1.68576
H	17.2973	-0.109732	2.53412
C	14.9566	1.08982	0.27133
C	15.7796	-1.1629	0.623368
N	14.9544	-1.62918	-0.389799
H	16.3905	-1.91465	1.10786
N	14.1562	0.519946	-0.740246
C	14.0982	-0.813803	-1.12666
H	13.5516	1.15566	-1.24599
H	14.9424	-2.60677	-0.639867
O	13.3638	-1.24486	-2.0326
O	14.8982	2.31414	0.504181
