30
  This energy is 6.129e-05 and Call times are: 8381
C	0.358515	0.501945	-1.24038
N	1.41964	1.21966	-0.785451
C	1.71066	1.19341	0.537978
C	-0.397417	-0.242698	-0.310633
C	0.012826	-0.182259	1.03141
N	1.06043	0.520467	1.51191
H	2.5652	1.78215	0.846503
N	0.0717871	0.531497	-2.56412
H	0.65216	1.08382	-3.17379
H	-0.707195	0.0108485	-2.93156
N	-1.52061	-1.06567	-0.452122
C	-1.77918	-1.49004	0.777485
N	-0.882215	-0.986433	1.71583
H	-2.5857	-2.15054	1.04957
H	-0.868911	-1.16099	2.70778
C	13.6253	2.67786	-0.249669
C	13.3075	1.23876	0.0391815
H	12.7086	3.27558	-0.311289
H	14.1277	2.78009	-1.21848
H	14.2696	3.10714	0.523584
C	12.4513	0.523319	-0.910256
C	13.7668	0.567668	1.12527
N	13.4543	-0.7629	1.36346
H	14.4034	1.03516	1.86647
N	12.1917	-0.8231	-0.580982
C	12.6502	-1.53065	0.523869
H	11.6017	-1.33688	-1.22397
H	13.8083	-1.24056	2.17884
O	12.378	-2.72273	0.74918
O	11.9649	1.02251	-1.94501
