30
  This energy is -0.000485801 and Call times are: 6297
C	-0.143958	0.172064	1.367
N	1.1885	0.239903	1.62782
C	2.06479	0.130272	0.599742
C	-0.558809	-0.0104029	0.0309782
C	0.453336	-0.108935	-0.937978
N	1.78218	-0.0453169	-0.709265
H	3.11318	0.191091	0.862837
N	-1.01577	0.2822	2.39811
H	-0.652878	0.411148	3.32831
H	-2.0082	0.23598	2.23735
N	-1.82427	-0.118589	-0.557041
C	-1.57767	-0.278527	-1.85029
N	-0.215331	-0.280431	-2.13786
H	-2.3271	-0.396189	-2.61532
H	0.221698	-0.385091	-3.03933
C	7.22662	-0.884445	2.52472
C	7.69306	-0.586836	1.12855
H	6.21608	-0.493703	2.69059
H	7.87247	-0.397516	3.26443
H	7.22062	-1.9606	2.72246
C	7.75606	0.816595	0.712846
C	8.05739	-1.54071	0.235063
N	8.48397	-1.23222	-1.04857
H	8.03478	-2.59644	0.475879
N	8.20156	1.02725	-0.608457
C	8.57945	0.0677966	-1.54024
H	8.25291	1.99042	-0.916821
H	8.74988	-1.95982	-1.69528
O	8.96366	0.330356	-2.69321
O	7.45009	1.78665	1.43529
