30
  This energy is 0.000450271 and Call times are: 10293
C	-0.310537	-1.34372	0.130465
N	-1.35834	-1.15086	0.974848
C	-1.68309	0.113417	1.33954
C	0.396801	-0.213969	-0.331816
C	-0.0446583	1.03912	0.124138
N	-1.08008	1.26123	0.961241
H	-2.52509	0.210281	2.01311
N	0.0100372	-2.60938	-0.23105
H	-0.536275	-3.3715	0.135436
H	0.780281	-2.78479	-0.854635
N	1.49528	-0.0744535	-1.18782
C	1.7088	1.23324	-1.24471
N	0.805832	1.95594	-0.469459
H	2.48593	1.71106	-1.81788
H	0.761939	2.95506	-0.349347
C	7.1695	0.138505	2.7955
C	6.99729	0.150285	1.30365
H	8.08701	0.662547	3.08696
H	7.26635	-0.887257	3.16943
H	6.32216	0.61396	3.29869
C	8.05421	-0.453294	0.488168
C	5.92269	0.686338	0.672122
N	5.79389	0.681264	-0.709265
H	5.10591	1.14815	1.2131
N	7.83141	-0.409351	-0.903634
C	6.74052	0.133401	-1.57219
H	8.5497	-0.821213	-1.48659
H	4.98472	1.08638	-1.15588
O	6.61246	0.135373	-2.80892
O	9.09059	-0.978585	0.942647
