30
  This energy is -0.00196772 and Call times are: 14051
C	0.0453389	0.737709	-1.17165
N	-1.1828	1.29942	-1.01605
C	-1.91538	0.982359	0.0792303
C	0.506274	-0.155252	-0.181436
C	-0.353565	-0.39643	0.902783
N	-1.57641	0.145795	1.08395
H	-2.88532	1.45745	0.153747
N	0.773662	1.05789	-2.26818
H	0.385389	1.70253	-2.93697
H	1.6863	0.658688	-2.41181
N	1.69397	-0.883471	-0.0475204
C	1.55067	-1.5472	1.09169
N	0.32968	-1.29005	1.70954
H	2.28013	-2.21698	1.516
H	-0.0113415	-1.67064	2.57756
C	4.53304	1.38282	0.74424
C	5.78734	0.587876	0.520155
H	3.71897	1.01543	0.108865
H	4.68435	2.43491	0.476651
H	4.20978	1.33215	1.78836
C	6.34635	0.559067	-0.833758
C	6.4284	-0.101887	1.49698
N	7.58633	-0.827388	1.25676
H	6.07023	-0.12364	2.5189
N	7.52335	-0.204488	-0.976332
C	8.19685	-0.918249	0.0078014
H	7.92712	-0.238104	-1.90437
H	8.04513	-1.33249	2.00022
O	9.23503	-1.57207	-0.193687
O	5.85612	1.14827	-1.81818
