30
  This energy is -0.000374042 and Call times are: 3934
C	0.836351	-1.09946	-0.103611
N	0.86863	-1.36102	1.23004
C	0.167749	-0.563404	2.0723
C	0.0709533	-0.00375799	-0.555236
C	-0.607054	0.740898	0.423955
N	-0.593762	0.505423	1.75307
H	0.227989	-0.815988	3.12331
N	1.53863	-1.89969	-0.941339
H	2.0646	-2.66539	-0.553197
H	1.53476	-1.73196	-1.93369
N	-0.164558	0.519728	-1.8317
C	-0.966119	1.55566	-1.6238
N	-1.26674	1.73622	-0.276321
H	-1.35649	2.20258	-2.39183
H	-1.85029	2.44823	0.132465
C	5.65442	1.64342	-0.301557
C	6.74127	0.621844	-0.126729
H	5.77064	2.17887	-1.25086
H	5.69966	2.4011	0.489182
H	4.66377	1.1792	-0.282673
C	8.12888	1.09187	-0.12969
C	6.51075	-0.70568	0.0328443
N	7.53818	-1.62434	0.191875
H	5.51047	-1.12086	0.0446006
N	9.1	0.0832748	0.0387121
C	8.88816	-1.28036	0.203621
H	10.0663	0.386048	0.0398947
H	7.34124	-2.60711	0.308991
O	9.79928	-2.1141	0.347295
O	8.47615	2.2823	-0.266948
