30
  This energy is 0.000687016 and Call times are: 6319
C	-1.34931	0.30751	-0.0618255
N	-1.2883	1.32883	0.833304
C	-0.0936728	1.64122	1.39199
C	-0.160672	-0.386285	-0.371892
C	1.00887	0.0399809	0.278875
N	1.09993	1.04912	1.17079
H	-0.101369	2.46214	2.09774
N	-2.5458	-0.00080797	-0.617453
H	-3.35604	0.534664	-0.352183
H	-2.62349	-0.751466	-1.28332
N	0.1089	-1.45817	-1.23052
C	1.41127	-1.67094	-1.0984
N	2.00704	-0.792706	-0.197055
H	1.97204	-2.43056	-1.61732
H	2.97696	-0.753334	0.0718576
C	7.0494	-1.21615	-0.911082
C	8.3515	-0.72542	-0.346136
H	7.03202	-1.10975	-2.00185
H	6.20988	-0.624336	-0.528544
H	6.87691	-2.26732	-0.660995
C	8.72395	0.669084	-0.597208
C	9.19807	-1.49794	0.380131
N	10.3948	-1.01372	0.888182
H	8.98514	-2.53626	0.602866
N	9.95704	1.06609	-0.0399388
C	10.8395	0.293971	0.706173
H	10.2342	2.0266	-0.201227
H	11.008	-1.60816	1.42577
O	11.9146	0.715166	1.16736
O	8.03711	1.48248	-1.24775
