30
  This energy is 0.000155369 and Call times are: 7960
C	-1.11631	0.496688	-0.652831
N	-1.98357	-0.410356	-0.130151
C	-1.51354	-1.34967	0.726351
C	0.241984	0.420508	-0.279199
C	0.595378	-0.601996	0.616691
N	-0.242303	-1.51555	1.15137
H	-2.24611	-2.04681	1.11286
N	-1.59111	1.43357	-1.5085
H	-2.57245	1.43206	-1.73339
H	-0.97422	2.11873	-1.91212
N	1.36079	1.1847	-0.630133
C	2.36375	0.633472	0.040023
N	1.95771	-0.452294	0.811329
H	3.3878	0.966929	0.0103537
H	2.52927	-1.03185	1.40465
C	5.5741	0.184621	-2.30583
C	6.39026	-0.0953044	-1.07662
H	6.18103	0.677959	-3.07372
H	4.74715	0.867179	-2.07855
H	5.15975	-0.735978	-2.72779
C	7.01285	1.04235	-0.395066
C	6.58231	-1.3371	-0.564778
N	7.3429	-1.56207	0.573526
H	6.15164	-2.22154	-1.01795
N	7.76476	0.71151	0.751174
C	7.97525	-0.55073	1.2934
H	8.20403	1.48307	1.23815
H	7.47113	-2.49542	0.935123
O	8.65408	-0.766302	2.31253
O	6.9149	2.23103	-0.76115
