30
  This energy is -0.00660311 and Call times are: 7027
C	-0.797842	-1.03003	0.470661
N	0.102638	-1.48168	1.38347
C	1.29719	-0.851109	1.4943
C	-0.448124	0.0808801	-0.325544
C	0.821904	0.640244	-0.108372
N	1.73571	0.214098	0.789149
H	1.97663	-1.25123	2.23612
N	-1.99045	-1.66377	0.363773
H	-2.17661	-2.45113	0.962944
H	-2.67796	-1.35328	-0.30243
N	-1.13245	0.772969	-1.33132
C	-0.292185	1.72671	-1.70977
N	0.906784	1.69349	-1.00263
H	-0.488165	2.45887	-2.47547
H	1.69773	2.30857	-1.10598
C	5.33951	0.950724	2.2538
C	5.90538	0.388389	0.981397
H	5.57845	2.01609	2.35029
H	5.77623	0.454726	3.12824
H	4.25243	0.832737	2.29337
C	7.35434	0.471776	0.781441
C	5.15306	-0.189583	0.0114042
N	5.70725	-0.699692	-1.15372
H	4.07729	-0.284075	0.0942007
N	7.82072	-0.0739256	-0.432387
C	7.07053	-0.669909	-1.43915
H	8.8197	-0.0270495	-0.591296
H	5.12651	-1.12519	-1.86086
O	7.55418	-1.13109	-2.48763
O	8.15624	0.976942	1.59281
