30
  This energy is 1.6278e-05 and Call times are: 12121
C	0.958287	-0.812917	0.582996
N	0.595077	-1.93861	-0.0870595
C	-0.433999	-1.87538	-0.966746
C	0.244783	0.378077	0.332378
C	-0.799898	0.304736	-0.603723
N	-1.1828	-0.796868	-1.28345
H	-0.681648	-2.79986	-1.47277
N	1.98756	-0.881359	1.46122
H	2.4546	-1.76344	1.59316
H	2.28015	-0.0653706	1.97255
N	0.365554	1.67512	0.844195
C	-0.585361	2.36538	0.229223
N	-1.32181	1.58568	-0.658695
H	-0.788397	3.41269	0.37979
H	-2.09111	1.8776	-1.23969
C	17.1532	-1.88633	1.09656
C	16.3392	-0.748515	0.550443
H	17.355	-2.63115	0.318148
H	16.6096	-2.40893	1.89205
H	18.1083	-1.53623	1.49949
C	15.0287	-1.05963	-0.0257976
C	16.7481	0.545179	0.560814
N	15.9715	1.57394	0.0475612
H	17.7045	0.845334	0.970901
N	14.316	0.0522507	-0.520306
C	14.7138	1.38393	-0.520617
H	13.4071	-0.139983	-0.92316
H	16.2976	2.52873	0.0668128
O	14.0279	2.31526	-0.976881
O	14.5365	-2.2039	-0.0966519
