30
  This energy is -0.000199629 and Call times are: 8755
C	0.327616	-1.19495	-0.619509
N	0.327541	-0.68853	-1.8811
C	0.0458072	0.624914	-2.06092
C	0.0329903	-0.327096	0.453051
C	-0.241112	1.0114	0.126975
N	-0.24856	1.5421	-1.11418
H	0.0593389	0.976066	-3.08491
N	0.609854	-2.50845	-0.445086
H	0.811577	-3.0727	-1.25411
H	0.617777	-2.91302	0.476415
N	-0.0468487	-0.529924	1.83557
C	-0.36187	0.660179	2.32882
N	-0.492089	1.63091	1.33918
H	-0.507022	0.880699	3.37336
H	-0.723878	2.60367	1.46009
C	6.10169	0.167262	-0.724958
C	7.52275	0.233749	-0.243688
H	5.61914	-0.758547	-0.391173
H	6.06013	0.160961	-1.82023
H	5.51647	1.01637	-0.359213
C	8.43434	-0.837844	-0.652447
C	8.00691	1.22605	0.544888
N	9.32624	1.25808	0.972879
H	7.38859	2.04823	0.883665
N	9.7528	-0.716007	-0.167165
C	10.2708	0.289506	0.640406
H	10.4001	-1.44618	-0.43775
H	9.6629	2.00722	1.55923
O	11.4506	0.330476	1.03079
O	8.11675	-1.80514	-1.37359
