30
  This energy is 0.000287584 and Call times are: 13963
C	0.138288	1.06132	-0.879496
N	0.0344819	2.02824	0.0704321
C	-0.143046	1.66177	1.36311
C	0.0563186	-0.288227	-0.476539
C	-0.128831	-0.528928	0.894885
N	-0.235215	0.409132	1.85972
H	-0.21945	2.47091	2.0783
N	0.315663	1.43283	-2.17018
H	0.365645	2.41407	-2.38988
H	0.396031	0.740647	-2.89636
N	0.12391	-1.49089	-1.18921
C	-0.0174874	-2.43288	-0.26642
N	-0.174101	-1.90738	1.01342
H	-0.0154212	-3.49338	-0.45639
H	-0.298046	-2.41497	1.87458
C	8.51408	0.0373011	-2.70026
C	9.04755	-0.0915092	-1.30232
H	8.49394	1.08687	-3.01553
H	7.48084	-0.323766	-2.75885
H	9.12161	-0.528694	-3.41286
C	8.33761	0.612626	-0.231541
C	10.1451	-0.819987	-0.977459
N	10.6127	-0.918511	0.325062
H	10.7168	-1.36486	-1.71864
N	8.8894	0.450652	1.05609
C	10.0107	-0.289092	1.41243
H	8.41419	0.928885	1.81165
H	11.4317	-1.46684	0.541711
O	10.4402	-0.385985	2.57523
O	7.31875	1.31383	-0.395224
