30
  This energy is -0.000332828 and Call times are: 7273
C	0.0689974	-0.700476	1.19315
N	-0.174949	-1.91818	0.6402
C	-0.372043	-2.0036	-0.69797
C	0.106597	0.426979	0.345922
C	-0.114377	0.198	-1.0222
N	-0.35862	-0.997678	-1.59916
H	-0.562213	-2.99623	-1.08601
N	0.265339	-0.620424	2.53121
H	0.225159	-1.46444	3.07858
H	0.448057	0.266562	2.97027
N	0.327875	1.78641	0.594604
C	0.241727	2.36108	-0.597544
N	-0.0246295	1.44659	-1.61314
H	0.360032	3.41472	-0.788869
H	-0.134807	1.63582	-2.59632
C	5.96118	2.17905	0.895826
C	5.20468	0.923846	0.567774
H	5.28347	3.03811	0.959951
H	6.68676	2.41477	0.108834
H	6.49596	2.08578	1.84585
C	4.43597	0.894453	-0.679068
C	5.19343	-0.17898	1.35807
N	4.48334	-1.32371	1.0261
H	5.739	-0.225443	2.29256
N	3.74937	-0.312013	-0.927472
C	3.72303	-1.45285	-0.13414
H	3.21142	-0.354295	-1.78435
H	4.49061	-2.13172	1.63059
O	3.09137	-2.485	-0.419725
O	4.36295	1.83817	-1.49186
