30
  This energy is 0.000225932 and Call times are: 3564
C	0.817553	0.105578	1.11332
N	0.74783	1.4608	1.19444
C	0.00550616	2.13539	0.283001
C	0.110731	-0.543005	0.0788654
C	-0.619815	0.275638	-0.798145
N	-0.707577	1.62151	-0.742495
H	-0.0157478	3.21215	0.393379
N	1.56089	-0.564072	2.02677
H	2.04072	-0.0397976	2.73985
H	1.63227	-1.56741	1.99329
N	-0.0206331	-1.89155	-0.271879
C	-0.812401	-1.88304	-1.33579
N	-1.20547	-0.597533	-1.6986
H	-1.13218	-2.75696	-1.87873
H	-1.80138	-0.33131	-2.46581
C	10.032	2.20012	1.21493
C	9.44051	0.919346	0.699968
H	9.24797	2.93892	1.41716
H	10.6974	2.65055	0.46948
H	10.6008	2.03532	2.13502
C	8.648	0.977998	-0.530841
C	9.59832	-0.28314	1.30828
N	9.038	-1.44889	0.806387
H	10.1711	-0.398287	2.22026
N	8.12151	-0.257845	-0.960002
C	8.26952	-1.50004	-0.354526
H	7.57023	-0.240461	-1.80924
H	9.1697	-2.33173	1.27713
O	7.7732	-2.55211	-0.79355
O	8.42727	2.01678	-1.18566
