30
  This energy is -3.2667e-05 and Call times are: 12187
C	0.487489	-1.15492	-0.589534
N	-0.553578	-1.3077	-1.45029
C	-1.56068	-0.400971	-1.42952
C	0.474333	-0.0537735	0.292323
C	-0.630169	0.810069	0.209421
N	-1.67685	0.684059	-0.633644
H	-2.36424	-0.569783	-2.13509
N	1.49167	-2.06397	-0.61425
H	1.43907	-2.82695	-1.26898
H	2.27608	-1.9783	0.0104668
N	1.37158	0.377067	1.27629
C	0.81832	1.47516	1.77326
N	-0.395068	1.78429	1.16433
H	1.23765	2.08026	2.55988
H	-1.00183	2.5629	1.36487
C	12.3482	1.94375	-1.68587
C	13.0625	1.02809	-0.733691
H	11.2966	2.06148	-1.39985
H	12.3488	1.52959	-2.70069
H	12.8144	2.93326	-1.71337
C	12.5541	-0.338059	-0.586947
C	14.1472	1.39392	-0.00522222
N	14.7847	0.523163	0.866701
H	14.5747	2.38724	-0.0649291
N	13.2691	-1.14556	0.321567
C	14.3809	-0.79341	1.0776
H	12.9348	-2.09423	0.438465
H	15.5902	0.81885	1.39781
O	14.9616	-1.56354	1.86217
O	11.5682	-0.799213	-1.19669
