30
  This energy is -0.00666065 and Call times are: 2110
C	0.733141	0.95897	-0.679641
N	-0.117732	1.04445	-1.73642
C	-1.22863	0.268185	-1.74887
C	0.421349	0.0615559	0.363334
C	-0.761357	-0.683419	0.224625
N	-1.62435	-0.619959	-0.811422
H	-1.87151	0.375609	-2.61329
N	1.84217	1.73701	-0.67196
H	2.0053	2.35652	-1.44861
H	2.49131	1.6966	0.0960819
N	1.07303	-0.255793	1.56061
C	0.299012	-1.17094	2.12831
N	-0.825664	-1.46816	1.36317
H	0.49339	-1.64812	3.0745
H	-1.55836	-2.12507	1.57814
C	5.63327	2.37874	1.41005
C	5.27538	1.0627	0.781279
H	5.46329	3.20507	0.710275
H	6.69681	2.40944	1.67338
H	5.04524	2.56183	2.31445
C	5.98126	0.6747	-0.442479
C	4.33915	0.217276	1.28094
N	4.03151	-0.992411	0.675247
H	3.78019	0.441416	2.18116
N	5.59868	-0.570968	-0.981576
C	4.64412	-1.4525	-0.488338
H	6.07423	-0.859096	-1.82789
H	3.33092	-1.60448	1.06625
O	4.35894	-2.53926	-1.02082
O	6.86115	1.3588	-1.00316
