30
  This energy is -0.000418158 and Call times are: 12869
C	0.288465	1.32049	-0.303509
N	0.845523	1.60955	0.902393
C	0.912095	0.637419	1.84439
C	-0.198545	0.0147604	-0.523161
C	-0.0670456	-0.896386	0.537754
N	0.480655	-0.638526	1.74428
H	1.36486	0.920934	2.78602
N	0.224299	2.29568	-1.24173
H	0.590715	3.20681	-1.01998
H	-0.182233	2.11284	-2.14406
N	-0.812637	-0.589483	-1.62618
C	-1.04478	-1.83572	-1.23644
N	-0.613729	-2.07714	0.0653224
H	-1.51261	-2.59738	-1.83791
H	-0.677672	-2.9386	0.58339
C	7.74381	-1.70137	2.17779
C	7.55919	-0.651956	1.11945
H	8.46419	-2.46103	1.85319
H	6.80325	-2.22936	2.3726
H	8.09823	-1.2638	3.11597
C	7.08636	-1.08469	-0.197959
C	7.80489	0.668092	1.31447
N	7.62429	1.61305	0.314824
H	8.15604	1.05629	2.26266
N	6.93422	-0.0513277	-1.14543
C	7.17926	1.30528	-0.968967
H	6.60813	-0.328128	-2.06328
H	7.81389	2.58961	0.484333
O	7.02146	2.16238	-1.85575
O	6.82445	-2.26467	-0.507165
