30
  This energy is -0.0017692 and Call times are: 7784
C	0.292687	-1.169	-0.68323
N	1.55829	-0.805511	-1.02116
C	2.02138	0.404899	-0.624561
C	-0.48757	-0.266096	0.0693156
C	0.114578	0.955035	0.414682
N	1.36708	1.34296	0.093861
H	3.03499	0.644028	-0.920311
N	-0.165497	-2.37993	-1.08208
H	0.44363	-2.97663	-1.61734
H	-1.09782	-2.67779	-0.847661
N	-1.79428	-0.335743	0.56582
C	-1.97296	0.817804	1.19533
N	-0.849562	1.63823	1.13574
H	-2.8751	1.11406	1.70439
H	-0.738253	2.55667	1.53407
C	7.3423	-1.9423	-1.95436
C	7.22347	-0.968576	-0.817179
H	7.47577	-1.41631	-2.90668
H	6.42817	-2.53861	-2.05513
H	8.18747	-2.62223	-1.81072
C	6.13455	0.010349	-0.865677
C	8.06444	-0.945018	0.247309
N	7.92737	-0.0313985	1.28237
H	8.8898	-1.63925	0.346774
N	6.07898	0.894663	0.231403
C	6.92773	0.937741	1.3311
H	5.33358	1.57995	0.21845
H	8.56584	-0.0338603	2.06385
O	6.81614	1.75065	2.26525
O	5.29523	0.0954278	-1.78485
