30
  This energy is -0.000564153 and Call times are: 10819
C	-0.410839	1.14639	-0.66032
N	0.518432	1.06375	-1.64911
C	1.39649	0.0313878	-1.63977
C	-0.420951	0.149092	0.337502
C	0.544615	-0.865177	0.228134
N	1.47835	-0.973193	-0.740705
H	2.11477	0.0135533	-2.44958
N	-1.28625	2.18023	-0.674156
H	-1.22434	2.85819	-1.41587
H	-1.98584	2.2691	0.0438838
N	-1.22777	-0.0498742	1.46369
C	-0.757293	-1.15888	2.01834
N	0.31614	-1.69524	1.31213
H	-1.14236	-1.61652	2.91447
H	0.84055	-2.52704	1.53053
C	8.93385	1.52001	2.26811
C	9.11347	0.776333	0.975783
H	9.80153	2.15654	2.47637
H	8.85053	0.824174	3.11087
H	8.03841	2.14844	2.24564
C	10.273	-0.110662	0.852331
C	8.26595	0.879834	-0.0786912
N	8.46056	0.178652	-1.25993
H	7.39015	1.51663	-0.0554217
N	10.3832	-0.77851	-0.384802
C	9.5291	-0.688418	-1.47746
H	11.1777	-1.39715	-0.491855
H	7.81581	0.27234	-2.03055
O	9.69156	-1.31106	-2.54133
O	11.1254	-0.295047	1.74447
