30
  This energy is -2.24e-07 and Call times are: 12627
C	0.185428	0.296227	-1.34048
N	-1.11918	0.58726	-1.58822
C	-2.01539	0.49692	-0.575563
C	0.551603	-0.0890894	-0.0336522
C	-0.476592	-0.142115	0.921871
N	-1.77866	0.140754	0.705571
H	-3.04002	0.739502	-0.82721
N	1.07733	0.388048	-2.35608
H	0.749414	0.669093	-3.26552
H	2.05009	0.179151	-2.20439
N	1.77976	-0.445415	0.535134
C	1.49555	-0.70662	1.80394
N	0.144017	-0.539226	2.09379
H	2.2096	-1.01553	2.54924
H	-0.315344	-0.675579	2.97978
C	12.7468	0.161764	-2.70439
C	13.0429	-0.0895024	-1.25367
H	13.6721	0.31988	-3.27027
H	12.1481	1.07136	-2.82899
H	12.204	-0.676366	-3.15176
C	13.7676	0.946812	-0.513865
C	12.6786	-1.2174	-0.593314
N	12.968	-1.41901	0.748507
H	12.1414	-2.02288	-1.07878
N	14.0135	0.649022	0.842431
C	13.6507	-0.497391	1.53934
H	14.5132	1.35196	1.37304
H	12.6862	-2.26679	1.2178
O	13.9034	-0.690699	2.74129
O	14.1583	2.02681	-1.00122
