30
  This energy is -0.00248456 and Call times are: 263
C	0.191598	-0.878711	1.05365
N	1.18696	-1.58307	0.452656
C	1.58436	-1.22533	-0.792712
C	-0.387344	0.199339	0.351517
C	0.118514	0.463003	-0.932076
N	1.10444	-0.21796	-1.55369
H	2.37993	-1.81914	-1.22457
N	-0.201995	-1.24029	2.29853
H	0.253301	-2.0201	2.74371
H	-0.936173	-0.738598	2.7699
N	-1.40563	1.10118	0.681126
C	-1.50904	1.88891	-0.380795
N	-0.610188	1.54805	-1.38804
H	-2.20145	2.70824	-0.48097
H	-0.495343	1.9925	-2.28463
C	8.36168	1.94065	0.469115
C	7.44679	0.787913	0.169804
H	8.2521	2.26629	1.50995
H	8.11462	2.80753	-0.154476
H	9.40875	1.67433	0.296022
C	6.00763	0.990938	0.354207
C	7.87679	-0.425194	-0.259605
N	7.00474	-1.47053	-0.527289
H	8.9259	-0.643644	-0.416807
N	5.20479	-0.129478	0.0561994
C	5.62191	-1.37992	-0.384244
H	4.20634	-0.0112374	0.176664
H	7.34897	-2.36403	-0.845893
O	4.85148	-2.32488	-0.627927
O	5.48353	2.05441	0.742681
