30
  This energy is -0.00320612 and Call times are: 3741
C	0.909581	0.079894	-1.04178
N	0.407821	1.2318	-1.56085
C	-0.657625	1.81364	-0.95825
C	0.296483	-0.462529	0.107239
C	-0.800179	0.241529	0.631316
N	-1.31983	1.38571	0.138363
H	-1.01693	2.72845	-1.4122
N	1.97466	-0.49777	-1.64781
H	2.36475	-0.0582136	-2.46526
H	2.36892	-1.35082	-1.28757
N	0.56437	-1.60636	0.868
C	-0.350961	-1.58966	1.82757
N	-1.20377	-0.493098	1.73298
H	-0.447851	-2.3281	2.60608
H	-1.97347	-0.259852	2.33941
C	7.03366	1.30729	2.2251
C	6.49549	0.449224	1.11626
H	6.24987	1.95631	2.63235
H	7.82489	1.97046	1.85691
H	7.43983	0.699103	3.03896
C	5.91607	1.12151	-0.0493725
C	6.51575	-0.907317	1.13393
N	6.00965	-1.67155	0.0924628
H	6.9287	-1.46801	1.96349
N	5.42938	0.259367	-1.05362
C	5.43924	-1.1304	-1.05761
H	5.0245	0.703071	-1.86886
H	6.03622	-2.67968	0.128841
O	4.98945	-1.82716	-1.98397
O	5.83638	2.35862	-0.190021
