30
  This energy is -0.000912182 and Call times are: 13067
C	0.610937	0.856833	0.900903
N	0.879417	-0.101942	1.82651
C	0.505748	-1.38013	1.57463
C	-0.0482156	0.477872	-0.287487
C	-0.37959	-0.880514	-0.421651
N	-0.126238	-1.85364	0.478916
H	0.74354	-2.10326	2.34443
N	0.986492	2.13296	1.15743
H	1.4537	2.3357	2.02588
H	0.801891	2.86516	0.492059
N	-0.459293	1.20471	-1.41069
C	-1.02493	0.302989	-2.2018
N	-1.00465	-0.976513	-1.65304
H	-1.45956	0.508403	-3.16599
H	-1.36931	-1.82386	-2.05754
C	4.89335	2.63492	-0.931154
C	4.85037	1.18095	-0.557583
H	5.90269	2.92886	-1.24138
H	4.63668	3.26648	-0.0728763
H	4.19949	2.85782	-1.74731
C	5.72723	0.726392	0.524486
C	4.0487	0.269352	-1.16359
N	4.03296	-1.06796	-0.794541
H	3.37658	0.536692	-1.96973
N	5.63853	-0.648436	0.825591
C	4.82641	-1.59969	0.219659
H	6.23619	-0.984359	1.57083
H	3.4275	-1.72718	-1.26059
O	4.80227	-2.80066	0.540557
O	6.50988	1.4602	1.16132
