30
  This energy is 0.00141477 and Call times are: 14250
C	0.757996	-0.785642	-0.852783
N	1.47704	0.245434	-1.3704
C	1.23138	1.50325	-0.92949
C	-0.217482	-0.500246	0.125661
C	-0.370341	0.846975	0.49261
N	0.327946	1.89043	-0.00315628
H	1.8318	2.28654	-1.37446
N	1.00735	-2.04103	-1.29683
H	1.71781	-2.17543	-1.9974
H	0.491867	-2.82518	-0.933122
N	-1.10421	-1.31502	0.838908
C	-1.77468	-0.475883	1.61687
N	-1.37148	0.84616	1.44862
H	-2.54947	-0.756975	2.31073
H	-1.72684	1.66133	1.92171
C	6.9546	2.79701	0.0131478
C	7.02827	1.30202	0.135561
H	5.94284	3.15747	0.231812
H	7.18318	3.11688	-1.01
H	7.65437	3.28819	0.696021
C	6.1475	0.501411	-0.718646
C	7.86092	0.654736	0.98917
N	7.90452	-0.729104	1.07824
H	8.5377	1.18419	1.6485
N	6.26594	-0.894217	-0.554696
C	7.11002	-1.57877	0.311604
H	5.66616	-1.46708	-1.13565
H	8.53277	-1.18758	1.72124
O	7.15933	-2.8179	0.401318
O	5.33783	0.971014	-1.54356
