30
  This energy is -0.00413552 and Call times are: 2327
C	0.934247	0.863476	0.548292
N	1.76445	0.853033	-0.528148
C	1.43003	0.104703	-1.6075
C	-0.245161	0.0911346	0.4949
C	-0.471062	-0.638154	-0.684137
N	0.333847	-0.667974	-1.76738
H	2.12572	0.132262	-2.43654
N	1.27303	1.6131	1.6247
H	2.12969	2.1413	1.59756
H	0.679273	1.64158	2.43682
N	-1.28338	-0.109294	1.41184
C	-2.11429	-0.940404	0.797247
N	-1.67223	-1.29365	-0.474943
H	-3.03504	-1.31672	1.21122
H	-2.12431	-1.90714	-1.13361
C	6.56515	2.581	-1.08286
C	6.38818	1.23466	-0.441406
H	6.75515	2.47973	-2.15759
H	7.43255	3.10291	-0.662617
H	5.6799	3.20881	-0.943429
C	7.49314	0.277996	-0.542758
C	5.26736	0.856767	0.223336
N	5.13531	-0.39582	0.805088
H	4.41353	1.51355	0.335903
N	7.26316	-0.966147	0.0800594
C	6.12537	-1.37516	0.765418
H	8.01425	-1.64286	0.0223149
H	4.29132	-0.653614	1.29456
O	5.99401	-2.49408	1.2914
O	8.57445	0.499527	-1.12436
