30
  This energy is -8.0212e-05 and Call times are: 8667
C	1.03354	0.20905	-0.898397
N	1.5412	1.2954	-0.257929
C	0.939243	1.72917	0.876236
C	-0.103407	-0.422757	-0.352022
C	-0.628228	0.129392	0.828112
N	-0.146439	1.20545	1.4855
H	1.38383	2.59747	1.34576
N	1.63888	-0.220574	-2.03169
H	2.44738	0.276304	-2.36789
H	1.28691	-1.02186	-2.52863
N	-0.851022	-1.5341	-0.758026
C	-1.8036	-1.64692	0.157814
N	-1.71691	-0.665873	1.14204
H	-2.57149	-2.40259	0.16509
H	-2.32038	-0.540487	1.93872
C	13.3217	2.18557	-1.48598
C	12.9359	1.07313	-0.553768
H	12.4422	2.76719	-1.78527
H	13.759	1.78775	-2.40899
H	14.0452	2.86242	-1.02154
C	11.9708	0.0812287	-1.0347
C	13.4287	0.936365	0.702954
N	13.0512	-0.103749	1.53993
H	14.1446	1.63302	1.12159
N	11.6516	-0.93587	-0.111524
C	12.1427	-1.09621	1.1787
H	10.9862	-1.6326	-0.423351
H	13.432	-0.184097	2.471
O	11.8132	-2.02331	1.93884
O	11.4439	0.0918642	-2.16553
