30
  This energy is -0.000196498 and Call times are: 3476
C	1.10585	0.712991	0.433334
N	0.513054	1.93322	0.345461
C	-0.772555	2.0093	-0.0767547
C	0.353416	-0.426748	0.0794923
C	-0.968344	-0.206554	-0.341801
N	-1.58297	0.991347	-0.438973
H	-1.19575	3.00443	-0.128311
N	2.39107	0.642307	0.855907
H	2.87117	1.49488	1.09298
H	2.85761	-0.246247	0.931534
N	0.662284	-1.79169	0.0595632
C	-0.449155	-2.37819	-0.364237
N	-1.4691	-1.4662	-0.622451
H	-0.57747	-3.43891	-0.502659
H	-2.40054	-1.66365	-0.951116
C	12.2136	-0.0118818	1.23133
C	10.8159	-0.131167	0.694948
H	12.4258	1.01721	1.54333
H	12.9508	-0.259834	0.459063
H	12.3702	-0.674653	2.08775
C	10.4524	0.697178	-0.457472
C	9.87569	-0.959197	1.2158
N	8.59207	-1.04576	0.69648
H	10.0766	-1.59844	2.06673
N	9.12679	0.537663	-0.911477
C	8.14769	-0.302643	-0.394937
H	8.85399	1.10085	-1.7076
H	7.91005	-1.66957	1.10151
O	6.99415	-0.39012	-0.850565
O	11.2205	1.49724	-1.02876
