30
  This energy is -7.7443e-05 and Call times are: 8777
C	-0.314647	-1.10876	-0.76855
N	0.810885	-1.05989	-1.52938
C	1.71707	-0.0789451	-1.29824
C	-0.49145	-0.131513	0.233489
C	0.524997	0.828683	0.367214
N	1.65182	0.902261	-0.372405
H	2.59464	-0.0862666	-1.93216
N	-1.21735	-2.09124	-1.00355
H	-1.0297	-2.75746	-1.73466
H	-2.0603	-2.15414	-0.457303
N	-1.5133	0.0912303	1.16358
C	-1.11938	1.16132	1.8408
N	0.108084	1.64965	1.40087
H	-1.66686	1.62289	2.64577
H	0.613814	2.44633	1.75318
C	7.89557	2.39668	-1.23873
C	7.42112	1.21487	-0.442714
H	7.46281	2.38854	-2.24573
H	8.98355	2.36868	-1.36875
H	7.62723	3.33921	-0.752044
C	7.70686	-0.122767	-0.967581
C	6.74572	1.31653	0.729647
N	6.32067	0.203891	1.44112
H	6.50129	2.27342	1.17426
N	7.23478	-1.18797	-0.173126
C	6.54188	-1.10841	1.02901
H	7.42153	-2.12185	-0.517246
H	5.81978	0.305347	2.31127
O	6.15553	-2.09694	1.67664
O	8.31758	-0.354022	-2.03064
