30
  This energy is -0.0019145 and Call times are: 6808
C	-0.307083	1.19416	-0.631437
N	-1.62848	0.917617	-0.791154
C	-2.1107	-0.265322	-0.338433
C	0.508914	0.233108	0.0017216
C	-0.118531	-0.950882	0.423033
N	-1.42622	-1.25287	0.278348
H	-3.16905	-0.434607	-0.491011
N	0.170014	2.37796	-1.08569
H	-0.466886	3.01962	-1.52866
H	1.14341	2.61189	-0.982311
N	1.8736	0.211752	0.311638
C	2.06159	-0.958928	0.905821
N	0.889258	-1.70418	1.00021
H	3.00416	-1.3194	1.28315
H	0.774098	-2.61855	1.40674
C	5.57615	2.01697	0.891379
C	6.35095	0.831742	0.391031
H	5.74279	2.89106	0.251377
H	5.90497	2.3022	1.89732
H	4.50261	1.80766	0.922281
C	7.80726	0.958156	0.293253
C	5.78006	-0.343782	0.0261271
N	6.52487	-1.42061	-0.432725
H	4.71014	-0.505422	0.0732291
N	8.47434	-0.189379	-0.183044
C	7.91188	-1.4024	-0.562235
H	9.48203	-0.124077	-0.258514
H	6.07701	-2.28505	-0.698246
O	8.56737	-2.37505	-0.97477
O	8.45418	1.98106	0.596114
