30
  This energy is -0.00539957 and Call times are: 13089
C	0.070142	1.38292	0.0407093
N	-1.14615	1.55502	0.623023
C	-1.89336	0.463154	0.916884
C	0.503927	0.0688206	-0.233788
C	-0.368728	-0.972816	0.121862
N	-1.58034	-0.832721	0.700265
H	-2.85289	0.656708	1.37935
N	0.813177	2.47751	-0.251037
H	0.444195	3.38745	-0.0286333
H	1.71762	2.38298	-0.682265
N	1.67401	-0.436486	-0.812098
C	1.50781	-1.75224	-0.803965
N	0.288584	-2.13302	-0.249755
H	2.21905	-2.47018	-1.17741
H	-0.0670025	-3.06807	-0.132071
C	7.93983	1.17927	-2.12417
C	7.29036	0.394632	-1.02056
H	8.44323	2.06838	-1.72736
H	7.19176	1.54	-2.83947
H	8.67489	0.57488	-2.6642
C	6.27889	1.07059	-0.204221
C	7.58688	-0.899031	-0.738721
N	6.96825	-1.59617	0.288968
H	8.32394	-1.45847	-1.30162
N	5.70843	0.278929	0.813882
C	5.99573	-1.04575	1.1209
H	5.00651	0.726401	1.39049
H	7.20597	-2.55829	0.479144
O	5.44894	-1.6821	2.0385
O	5.91538	2.25408	-0.358403
