30
  This energy is -0.00021321 and Call times are: 12671
C	1.01174	-0.563894	0.759892
N	0.927376	-1.79544	0.190455
C	0.00981715	-2.00611	-0.784505
C	0.136249	0.446372	0.30907
C	-0.766535	0.0938823	-0.707667
N	-0.873234	-1.11863	-1.29127
H	-0.0149665	-3.00401	-1.20357
N	1.93056	-0.35843	1.73401
H	2.52501	-1.12303	2.00899
H	2.01747	0.542104	2.17491
N	-0.0281913	1.78599	0.679527
C	-1.00787	2.22821	-0.0973671
N	-1.49241	1.24591	-0.957
H	-1.40478	3.22976	-0.0866103
H	-2.22939	1.33503	-1.63783
C	11.1915	-2.46299	0.826687
C	10.5547	-1.23353	0.244962
H	10.8546	-2.62725	1.85672
H	12.2813	-2.35493	0.870532
H	10.9533	-3.35297	0.236382
C	10.7829	0.0429612	0.926783
C	9.78349	-1.23917	-0.871327
N	9.209	-0.0847516	-1.3833
H	9.57408	-2.14675	-1.42406
N	10.1578	1.15733	0.330103
C	9.36468	1.17588	-0.811056
H	10.3024	2.05033	0.78513
H	8.639	-0.114562	-2.21551
O	8.84418	2.20281	-1.28053
O	11.4697	0.185196	1.95859
