30
  This energy is -0.00258909 and Call times are: 3586
C	-1.14619	-0.448243	0.635887
N	-1.4266	0.735647	1.24239
C	-0.599437	1.78966	1.03817
C	-0.000762258	-0.52873	-0.183793
C	0.770376	0.638525	-0.309822
N	0.517208	1.82641	0.279253
H	-0.86887	2.70787	1.54447
N	-1.9761	-1.49878	0.843225
H	-2.77696	-1.37361	1.44034
H	-1.79551	-2.38825	0.408335
N	0.552514	-1.57496	-0.930892
C	1.63185	-1.04784	-1.49308
N	1.81252	0.289857	-1.15161
H	2.31098	-1.57173	-2.14506
H	2.55285	0.904779	-1.44889
C	9.29147	1.72797	0.512456
C	8.03314	0.942026	0.279361
H	9.90672	1.75825	-0.394159
H	9.9067	1.25904	1.28898
H	9.06959	2.75519	0.817125
C	8.16709	-0.456805	-0.135038
C	6.78529	1.4529	0.430282
N	5.64195	0.699507	0.206605
H	6.61384	2.47832	0.733927
N	6.94879	-1.1377	-0.337024
C	5.66111	-0.63619	-0.18892
H	7.01797	-2.10638	-0.623875
H	4.72434	1.10221	0.325654
O	4.62846	-1.30011	-0.385815
O	9.25294	-1.04602	-0.309148
