30
  This energy is 0.000782986 and Call times are: 8821
C	-0.256513	-1.23929	-0.56338
N	-1.23531	-1.57911	0.316701
C	-1.56754	-0.705464	1.29813
C	0.374047	0.0141454	-0.416203
C	-0.0664245	0.823393	0.644045
N	-1.03442	0.513207	1.53228
H	-2.3527	-1.02578	1.97116
N	0.0718697	-2.11604	-1.54258
H	-0.417789	-2.99437	-1.59127
H	0.792195	-1.89358	-2.20932
N	1.392	0.648127	-1.1378
C	1.55918	1.81216	-0.524643
N	0.702332	1.9716	0.561205
H	2.27024	2.56881	-0.812086
H	0.637578	2.76285	1.18115
C	5.28854	-0.311935	1.75076
C	6.38256	0.0234003	0.778085
H	5.70281	-0.555457	2.73589
H	4.73095	-1.19639	1.42178
H	4.58671	0.519825	1.86412
C	7.40353	-0.994887	0.519054
C	6.47765	1.21117	0.129182
N	7.50201	1.48987	-0.764051
H	5.7579	2.0075	0.273703
N	8.40135	-0.617159	-0.403096
C	8.5192	0.591511	-1.07896
H	9.11748	-1.3063	-0.597167
H	7.55116	2.3812	-1.23465
O	9.43153	0.854154	-1.88182
O	7.43172	-2.12435	1.04828
