30
  This energy is -0.000245547 and Call times are: 4552
C	-0.731342	0.346563	-1.12431
N	0.310462	0.241403	-1.99129
C	1.52765	-0.115969	-1.51422
C	-0.499166	0.0778249	0.241064
C	0.809812	-0.282453	0.601337
N	1.86271	-0.394871	-0.235883
H	2.32168	-0.184804	-2.2469
N	-1.94598	0.704097	-1.60616
H	-2.0433	0.881878	-2.59232
H	-2.73679	0.790471	-0.989667
N	-1.33765	0.0959347	1.36154
C	-0.549859	-0.245836	2.37222
N	0.761121	-0.486513	1.96963
H	-0.861564	-0.33525	3.39964
H	1.54058	-0.758141	2.54692
C	5.12109	1.22509	2.31847
C	5.57695	0.411641	1.14121
H	4.45206	2.03268	1.99971
H	5.97235	1.70544	2.81447
H	4.59502	0.606041	3.05145
C	6.29995	1.1029	0.0707786
C	5.35739	-0.921259	1.01434
N	5.79185	-1.64428	-0.087167
H	4.83004	-1.49397	1.76732
N	6.69963	0.282681	-1.00448
C	6.4864	-1.08228	-1.15612
H	7.20126	0.740099	-1.75584
H	5.61638	-2.63546	-0.158619
O	6.87035	-1.74211	-2.1375
O	6.56634	2.32174	0.0645416
