30
  This energy is -0.000821153 and Call times are: 13290
C	0.739946	-0.932536	0.70844
N	1.49148	-1.33097	-0.351992
C	1.27969	-0.75417	-1.56001
C	-0.232571	0.0689479	0.504472
C	-0.348586	0.582374	-0.797816
N	0.382432	0.206978	-1.86874
H	1.90508	-1.10813	-2.36973
N	0.95552	-1.51217	1.91381
H	1.66587	-2.22146	1.99071
H	0.415484	-1.23884	2.71789
N	-1.14661	0.685311	1.36673
C	-1.79708	1.54963	0.599443
N	-1.35489	1.52981	-0.720687
H	-2.5837	2.2061	0.932668
H	-1.68931	2.0893	-1.48863
C	5.79741	-1.20546	2.41301
C	5.46711	-0.706326	1.03563
H	4.89133	-1.29738	3.0229
H	6.45347	-0.500837	2.93691
H	6.29255	-2.1805	2.37594
C	4.79904	0.592455	0.92054
C	5.75143	-1.38801	-0.102528
N	5.43244	-0.898717	-1.36097
H	6.24352	-2.35277	-0.0902755
N	4.5172	1.00271	-0.398906
C	4.79838	0.322678	-1.57791
H	4.05548	1.89806	-0.5018
H	5.65439	-1.42463	-2.19314
O	4.51835	0.749559	-2.7116
O	4.48309	1.31758	1.88539
