30
  This energy is 0.000433121 and Call times are: 10665
C	1.30855	-0.453801	-0.0281859
N	1.2592	-1.06031	1.18745
C	0.106213	-1.01265	1.89823
C	0.151805	0.202113	-0.499441
C	-0.975827	0.175823	0.337683
N	-1.05437	-0.417354	1.5477
H	0.12145	-1.5114	2.85898
N	2.46338	-0.504295	-0.734717
H	3.25247	-0.989285	-0.340118
H	2.53143	-0.0650289	-1.63767
N	-0.11921	0.904802	-1.67912
C	-1.38143	1.29191	-1.55332
N	-1.94959	0.878098	-0.351396
H	-1.93126	1.8632	-2.28276
H	-2.88773	1.04657	-0.0256546
C	7.69686	0.789974	-2.28944
C	8.51199	0.225738	-1.16133
H	8.00924	1.81435	-2.52283
H	6.63669	0.843855	-2.01645
H	7.79297	0.182006	-3.19408
C	8.4854	0.932084	0.121935
C	9.2681	-0.896172	-1.26401
N	10.0105	-1.39156	-0.201812
H	9.33327	-1.46668	-2.18234
N	9.27137	0.350912	1.13839
C	10.0527	-0.795591	1.05673
H	9.26754	0.822988	2.03424
H	10.5654	-2.22838	-0.302896
O	10.7224	-1.25038	2.00044
O	7.83327	1.97136	0.348225
