30
  This energy is -8.9989e-05 and Call times are: 8557
C	-0.917428	-1.02866	-0.138587
N	-1.97225	-0.325525	0.352341
C	-1.77915	0.956041	0.748754
C	0.338613	-0.390729	-0.214493
C	0.400121	0.940316	0.229981
N	-0.628631	1.66299	0.721502
H	-2.65188	1.46975	1.13147
N	-1.11566	-2.30934	-0.533484
H	-2.03808	-2.70452	-0.452462
H	-0.35478	-2.85592	-0.901189
N	1.59198	-0.82613	-0.65987
C	2.38848	0.220054	-0.486756
N	1.71972	1.31742	0.0491659
H	3.43886	0.246815	-0.724958
H	2.1034	2.22202	0.270705
C	12.6869	1.31988	1.49622
C	13.8621	0.71578	0.782529
H	12.1205	0.551944	2.03554
H	11.9898	1.77621	0.78403
H	13.0045	2.08476	2.21129
C	13.5967	-0.327612	-0.211077
C	15.1498	1.08062	1.00577
N	16.2139	0.502171	0.329076
H	15.4171	1.8444	1.72565
N	14.7421	-0.852701	-0.84431
C	16.0684	-0.495419	-0.632453
H	14.5817	-1.57545	-1.53518
H	17.1633	0.790705	0.512701
O	17.031	-1.00531	-1.23181
O	12.4625	-0.753114	-0.509741
