30
  This energy is -0.000251495 and Call times are: 13875
C	0.91566	0.958703	-0.401854
N	0.261668	2.00586	0.167213
C	-0.894977	1.77293	0.834117
C	0.359283	-0.331327	-0.272899
C	-0.844341	-0.432496	0.444091
N	-1.51557	0.587695	1.01927
H	-1.37449	2.6413	1.26774
N	2.07141	1.1968	-1.06737
H	2.41366	2.14204	-1.12199
H	2.5788	0.4426	-1.49939
N	0.774276	-1.58727	-0.730329
C	-0.159259	-2.42409	-0.29773
N	-1.16359	-1.77923	0.419311
H	-0.165933	-3.48808	-0.466943
H	-1.97589	-2.19405	0.846753
C	11.5409	1.57637	-2.22231
C	11.3474	0.800144	-0.951299
H	10.6766	2.22	-2.42239
H	11.6309	0.902215	-3.08185
H	12.4374	2.20196	-2.17516
C	10.185	-0.0870814	-0.861743
C	12.185	0.874591	0.113513
N	11.9777	0.143743	1.27442
H	13.0623	1.50978	0.114967
N	10.0615	-0.786235	0.356705
C	10.9053	-0.726189	1.4594
H	9.26478	-1.40561	0.440245
H	12.6152	0.216134	2.05331
O	10.7314	-1.37558	2.50532
O	9.34079	-0.246544	-1.7664
