30
  This energy is -0.00122467 and Call times are: 10643
C	0.286956	-0.411721	-1.29119
N	1.45795	-1.02419	-0.972261
C	1.87255	-1.01608	0.318045
C	-0.449499	0.208782	-0.260185
C	0.094131	0.143303	1.03334
N	1.25265	-0.456752	1.37968
H	2.81105	-1.5178	0.516844
N	-0.123071	-0.422624	-2.58236
H	0.450467	-0.883721	-3.26941
H	-0.985318	0.0220769	-2.85008
N	-1.66247	0.907025	-0.256533
C	-1.84332	1.25319	1.01089
N	-0.810311	0.816821	1.8362
H	-2.68518	1.80946	1.38849
H	-0.718746	0.954021	2.82988
C	5.45186	0.819376	1.37171
C	6.58502	0.23807	0.575807
H	5.2205	1.83689	1.03624
H	5.71821	0.895727	2.43219
H	4.5478	0.209448	1.28283
C	7.86814	0.944905	0.59546
C	6.48701	-0.899616	-0.156987
N	7.55381	-1.41055	-0.882068
H	5.56906	-1.47144	-0.215811
N	8.88947	0.347278	-0.171629
C	8.81263	-0.815529	-0.928957
H	9.7853	0.819389	-0.172186
H	7.45615	-2.25895	-1.41969
O	9.76049	-1.28434	-1.58294
O	8.09041	1.99778	1.22683
