30
  This energy is 0.00066749 and Call times are: 10508
C	-1.09704	0.00799123	0.845858
N	-0.63982	1.01383	1.63788
C	0.561649	1.57501	1.3579
C	-0.297145	-0.410096	-0.238457
C	0.926515	0.256362	-0.41597
N	1.40607	1.25685	0.352946
H	0.87793	2.37126	2.01971
N	-2.29858	-0.549634	1.12994
H	-2.81921	-0.203853	1.91923
H	-2.66428	-1.296	0.562391
N	-0.475831	-1.39382	-1.21785
C	0.61613	-1.31984	-1.96687
N	1.49978	-0.337786	-1.52709
H	0.823285	-1.93727	-2.82515
H	2.39088	-0.090414	-1.92625
C	6.28478	-0.546359	-2.48559
C	6.8779	-0.429059	-1.11086
H	7.02295	-0.286339	-3.25299
H	5.44854	0.151037	-2.61101
H	5.92396	-1.56104	-2.67917
C	7.40613	0.875063	-0.702649
C	6.95157	-1.45864	-0.230258
N	7.50639	-1.31718	1.03347
H	6.58074	-2.44844	-0.466606
N	7.94846	0.917541	0.598408
C	8.03475	-0.1221	1.5167
H	8.31938	1.80976	0.90136
H	7.54972	-2.09828	1.67093
O	8.52904	-0.00902403	2.65196
O	7.39965	1.89946	-1.41479
