30
  This energy is -0.00111171 and Call times are: 13221
C	-0.0223127	0.940692	-1.01668
N	0.551872	0.134579	-1.94864
C	0.89533	-1.1295	-1.60082
C	-0.236807	0.423945	0.27844
C	0.166121	-0.902424	0.50519
N	0.737854	-1.72556	-0.399104
H	1.34875	-1.72835	-2.38046
N	-0.363781	2.20338	-1.36935
H	-0.182942	2.50949	-2.31126
H	-0.790489	2.82428	-0.70204
N	-0.79181	0.981315	1.4361
C	-0.723739	0.0113588	2.33801
N	-0.152457	-1.15192	1.82901
H	-1.06429	0.086434	3.35739
H	0.00776763	-2.02019	2.31381
C	5.47312	-2.55818	1.12197
C	5.54573	-1.26758	0.357436
H	4.65009	-2.53778	1.84558
H	6.38993	-2.7219	1.69994
H	5.32682	-3.41097	0.452202
C	5.74077	-0.0313076	1.119
C	5.44108	-1.18321	-0.992695
N	5.5122	0.0259189	-1.66929
H	5.29597	-2.05669	-1.61644
N	5.8001	1.14407	0.342055
C	5.6956	1.25493	-1.03938
H	5.93462	2.01068	0.848334
H	5.4316	0.0628958	-2.67452
O	5.75777	2.3316	-1.65811
O	5.85169	0.0292953	2.3602
