30
  This energy is 6.1075e-05 and Call times are: 1673
C	1.11822	-0.515024	0.635111
N	0.595515	-1.75511	0.827542
C	-0.66115	-2.01263	0.390138
C	0.326028	0.45478	-0.0147162
C	-0.959176	0.0556911	-0.417208
N	-1.50435	-1.16643	-0.240059
H	-1.02837	-3.01527	0.568755
N	2.37476	-0.26267	1.07417
H	2.88624	-1.00007	1.53049
H	2.78958	0.645382	0.946596
N	0.563467	1.79082	-0.357461
C	-0.554178	2.18536	-0.95252
N	-1.51038	1.17527	-1.01633
H	-0.730753	3.17047	-1.35144
H	-2.43295	1.22767	-1.41723
C	6.97764	2.12976	0.708346
C	8.00145	1.06543	0.435479
H	6.07289	1.69722	1.15077
H	6.66477	2.61836	-0.221583
H	7.36723	2.89304	1.38869
C	7.6268	-0.0301965	-0.462092
C	9.2479	1.062	0.971471
N	10.171	0.0627351	0.699134
H	9.5903	1.84042	1.64222
N	8.63238	-0.995408	-0.676234
C	9.91399	-1.0199	-0.139165
H	8.3948	-1.76196	-1.29378
H	11.0924	0.0822987	1.11013
O	10.7508	-1.90877	-0.374927
O	6.51628	-0.145129	-1.01896
