30
  This energy is -0.000960145 and Call times are: 5986
C	-0.0268939	-0.19062	-1.37185
N	-1.23552	-0.812684	-1.3903
C	-1.89496	-1.0001	-0.221178
C	0.491032	0.234945	-0.130476
C	-0.29532	-0.0219072	1.00473
N	-1.49712	-0.636482	1.01725
H	-2.85245	-1.50024	-0.29269
N	0.628255	-0.00569075	-2.54315
H	0.202115	-0.333882	-3.3942
H	1.52467	0.451441	-2.5624
N	1.67729	0.888621	0.222158
C	1.60503	1.02141	1.53974
N	0.431858	0.487811	2.06664
H	2.35459	1.48555	2.159
H	0.146848	0.46618	3.0325
C	7.14556	2.12121	-0.332912
C	6.18587	0.966044	-0.336871
H	8.03705	1.88639	0.259968
H	6.69066	3.00536	0.128318
H	7.46097	2.38133	-1.34785
C	5.67144	0.49956	0.953149
C	5.77092	0.333378	-1.46314
N	4.88275	-0.732014	-1.43249
H	6.11125	0.626193	-2.44879
N	4.77558	-0.587049	0.879689
C	4.33673	-1.25013	-0.260181
H	4.40741	-0.925781	1.7601
H	4.58882	-1.18645	-2.28422
O	3.54129	-2.20564	-0.246962
O	5.9723	0.992623	2.05901
