30
  This energy is -0.00281953 and Call times are: 14095
C	0.525119	-0.701112	1.07318
N	0.866991	0.401737	1.79076
C	0.608557	1.6274	1.27327
C	-0.0868304	-0.521063	-0.185174
C	-0.297302	0.803482	-0.602669
N	0.030994	1.91644	0.087066
H	0.900863	2.471	1.88561
N	0.785565	-1.92397	1.59485
H	1.22479	-1.98199	2.4989
H	0.544431	-2.75937	1.08802
N	-0.54861	-1.42651	-1.14735
C	-1.02578	-0.662825	-2.121
N	-0.899511	0.695941	-1.84445
H	-1.46716	-1.02519	-3.03458
H	-1.185	1.46937	-2.42316
C	7.41221	1.2653	1.40738
C	6.21341	0.744103	0.668004
H	8.3103	1.21355	0.781157
H	7.61823	0.656958	2.29556
H	7.26663	2.30303	1.72226
C	6.25716	-0.636935	0.180956
C	5.09764	1.47752	0.427009
N	4.00627	0.965907	-0.260012
H	4.99841	2.50389	0.75835
N	5.10103	-1.06399	-0.50437
C	3.94821	-0.332034	-0.762878
H	5.10967	-2.01585	-0.849765
H	3.18729	1.53141	-0.426856
O	2.96335	-0.778096	-1.37686
O	7.21987	-1.41532	0.335526
