30
  This energy is 0.000679676 and Call times are: 13787
C	-0.105877	-0.606051	1.24118
N	-0.775596	0.421286	1.8278
C	-1.06279	1.52257	1.09191
C	0.262937	-0.480652	-0.114776
C	-0.0966934	0.713839	-0.760439
N	-0.760584	1.74953	-0.204764
H	-1.59712	2.31035	1.60759
N	0.17879	-1.70465	1.98105
H	-0.113365	-1.72972	2.94417
H	0.673326	-2.48171	1.57545
N	0.942457	-1.33558	-0.990114
C	0.989889	-0.669432	-2.13593
N	0.375954	0.577606	-2.05438
H	1.44556	-1.02784	-3.04404
H	0.282385	1.26479	-2.78488
C	11.3216	1.20923	-0.116779
C	9.97056	0.56462	-0.237477
H	12.0175	0.55924	0.426106
H	11.2595	2.14253	0.454595
H	11.7473	1.43071	-1.10015
C	9.27003	0.20751	0.998695
C	9.36567	0.295727	-1.42185
N	8.11578	-0.301483	-1.49905
H	9.82663	0.53301	-2.37278
N	8.00754	-0.393626	0.815787
C	7.36874	-0.678499	-0.385191
H	7.50548	-0.648654	1.65739
H	7.68636	-0.491394	-2.39229
O	6.24922	-1.21293	-0.468619
O	9.71397	0.400021	2.14866
