30
  This energy is 7.8166e-05 and Call times are: 10907
C	0.178814	1.36515	0.153007
N	1.4559	1.37929	-0.312753
C	2.02338	0.213487	-0.70735
C	-0.503716	0.131565	0.205662
C	0.20137	-1.00093	-0.23403
N	1.46786	-1.01759	-0.700836
H	3.04135	0.281308	-1.06955
N	-0.383899	2.53311	0.546198
H	0.158995	3.37857	0.482584
H	-1.32748	2.5554	0.895568
N	-1.79386	-0.215224	0.622955
C	-1.86211	-1.52672	0.43802
N	-0.682232	-2.05518	-0.0789769
H	-2.72079	-2.14038	0.65447
H	-0.487476	-3.0174	-0.304385
C	11.222	1.31021	0.501651
C	9.85741	0.695	0.379806
H	11.4798	1.87125	-0.403971
H	11.9903	0.536917	0.616413
H	11.2791	1.98767	1.359
C	9.62425	-0.239205	-0.72441
C	8.83347	0.955088	1.23117
N	7.58348	0.369746	1.09067
H	8.93659	1.63501	2.06791
N	8.32349	-0.78086	-0.782073
C	7.26031	-0.529765	0.0770922
H	8.14027	-1.42945	-1.53783
H	6.83744	0.579191	1.73713
O	6.13563	-1.04741	-0.0371655
O	10.4784	-0.56312	-1.5742
