30
  This energy is -0.0036543 and Call times are: 5312
C	-0.074342	-1.24585	0.601141
N	0.456189	-1.92606	-0.449535
C	0.819728	-1.23901	-1.55978
C	-0.224208	0.152539	0.489692
C	0.193028	0.739474	-0.716311
N	0.722502	0.0907974	-1.77511
H	1.23645	-1.82894	-2.36623
N	-0.436127	-1.93721	1.70861
H	-0.302121	-2.93493	1.72275
H	-0.831682	-1.46226	2.50288
N	-0.723911	1.12036	1.3686
C	-0.609356	2.26307	0.705276
N	-0.0601643	2.0917	-0.562672
H	-0.900201	3.23037	1.0801
H	0.125887	2.80196	-1.25225
C	6.5574	2.02242	1.21325
C	5.86033	0.818853	0.64672
H	5.8631	2.63668	1.79809
H	6.94042	2.66504	0.412175
H	7.39337	1.73298	1.85715
C	4.71556	1.04516	-0.239103
C	6.22984	-0.46016	0.908477
N	5.56397	-1.55113	0.3688
H	7.06596	-0.699154	1.55412
N	4.10647	-0.125429	-0.736512
C	4.46663	-1.44356	-0.482766
H	3.31287	0.00777011	-1.35122
H	5.85796	-2.49344	0.578493
O	3.87902	-2.43001	-0.95977
O	4.27514	2.1677	-0.559246
