15
  This energy is -0.0159005 and Call times are: 862
C	0.0581637	-0.182872	-0.379032
O	-1.02423	-0.571077	0.0246478
O	0.84325	0.681624	0.350595
H	0.496167	-0.482294	-1.34309
H	1.68364	0.905269	-0.0992153
C	4.41789	0.689176	-1.59494
O	4.44169	1.16747	-2.72199
O	3.48114	1.04494	-0.663902
H	5.13935	-0.0593749	-1.23752
H	3.59334	0.572975	0.195565
C	4.82813	-1.21143	1.95066
O	5.59638	-1.43626	1.03451
O	3.79461	-0.299163	1.80176
H	4.87118	-1.6829	2.93917
H	3.22727	-0.182541	2.59011
