15
  This energy is 0.00119822 and Call times are: 20631
C	-0.214178	-0.0660627	0.360907
O	0.820975	-0.702025	0.457115
O	-0.511342	0.682013	-0.756297
H	-0.988339	-0.0333188	1.14226
H	-1.37557	1.13752	-0.691273
C	6.93258	-0.827311	-1.51876
O	6.82748	-1.41499	-2.58795
O	5.92293	-0.0687129	-0.993359
H	7.83749	-0.858048	-0.895255
H	6.15906	0.340317	-0.126779
C	7.84282	0.877751	2.03315
O	8.6529	0.176741	1.45658
O	6.58942	1.10902	1.48718
H	8.01131	1.37437	2.99558
H	6.00445	1.68428	2.01997
