15
  This energy is 0.000397103 and Call times are: 24749
C	-0.345146	-0.197147	0.149993
O	0.399756	-1.07311	-0.2538
O	-0.0124321	1.13697	0.0757941
H	-1.33027	-0.389905	0.600866
H	-0.707244	1.72387	0.438269
C	8.23213	1.24521	-1.21142
O	8.24163	2.12008	-2.06821
O	9.3354	0.933386	-0.465449
H	7.34588	0.641143	-0.970073
H	9.16985	0.207882	0.182829
C	7.61542	-1.72454	1.46292
O	6.71546	-1.34888	0.735573
O	8.87288	-1.14452	1.39271
H	7.52991	-2.52055	2.21149
H	9.53365	-1.50978	2.01475
