15
  This energy is 0.0020541 and Call times are: 20799
C	-0.129436	0.302807	0.268411
O	0.446633	-0.530375	0.946052
O	-0.265498	0.168838	-1.09526
H	-0.583218	1.21815	0.677228
H	-0.750358	0.914218	-1.50505
C	6.25189	-1.36029	0.264946
O	5.50817	-2.31279	0.462881
O	7.13668	-1.32133	-0.777421
H	6.27279	-0.463717	0.900791
H	7.66515	-0.488223	-0.803465
C	8.44914	2.03074	0.10721
O	7.62355	1.86761	0.985773
O	8.65669	1.05923	-0.86008
H	9.08277	2.91798	-0.00511843
H	9.33944	1.27614	-1.52626
