15
  This energy is -0.00186201 and Call times are: 16725
C	-0.338967	0.256062	-0.00490353
O	-0.154707	-0.0438357	1.16187
O	0.468912	-0.212954	-1.01655
H	-1.15088	0.915075	-0.347548
H	0.20025	0.111471	-1.90039
C	5.72539	1.44438	0.736043
O	6.15736	2.46985	1.24732
O	6.22182	0.205965	1.03734
H	4.91013	1.43023	-0.00133855
H	5.77063	-0.520461	0.544638
C	3.91634	-1.57452	-1.25529
O	3.57024	-0.421455	-1.4306
O	4.93823	-1.88134	-0.369754
H	3.47836	-2.44662	-1.75419
H	5.14874	-2.83358	-0.29287
