15
  This energy is 0.00013332 and Call times are: 14815
C	0.261763	0.222704	-0.249748
O	0.0395118	-0.823064	-0.834744
O	-0.291821	0.504806	0.979086
H	0.91148	1.01898	-0.643079
H	-0.0239084	1.38031	1.32597
C	14.6071	-0.639111	-1.58899
O	14.3996	-1.10215	-2.70349
O	14.8507	0.690158	-1.37776
H	14.6156	-1.24486	-0.671616
H	14.9984	0.908573	-0.426697
C	15.2227	0.31706	2.29157
O	14.9948	-0.832574	1.96525
O	15.277	1.32616	1.34218
H	15.3999	0.657277	3.31827
H	15.4657	2.21863	1.69556
