15
  This energy is -0.00108854 and Call times are: 8778
C	-0.333849	0.0379289	0.259994
O	0.603525	0.570401	0.828367
O	-0.202655	-0.538675	-0.983544
H	-1.34837	-0.0284394	0.68101
H	-1.03864	-0.926701	-1.31395
C	3.45667	1.21062	-1.23813
O	3.35626	2.05398	-2.1203
O	3.49195	1.53531	0.0901198
H	3.52641	0.13128	-1.43491
H	3.57495	0.746642	0.677604
C	3.79862	-1.98188	1.22009
O	3.75562	-2.13072	0.0134095
O	3.73168	-0.715701	1.78122
H	3.89027	-2.7925	1.95207
H	3.77349	-0.692093	2.7583
