15
  This energy is -0.0119851 and Call times are: 16389
C	-0.400686	0.0703287	-0.122454
O	-0.452349	-0.7965	0.73264
O	0.791177	0.631108	-0.523775
H	-1.28383	0.474314	-0.639902
H	0.677296	1.31319	-1.21689
C	6.16596	1.20352	0.459551
O	6.99744	2.04473	0.776704
O	4.85868	1.27475	0.855588
H	6.39545	0.327751	-0.164095
H	4.31277	0.524283	0.519704
C	3.87842	-1.8479	-0.88503
O	5.06093	-1.78981	-1.16502
O	3.28698	-0.870688	-0.099009
H	3.19241	-2.63904	-1.2087
H	2.33284	-0.999007	0.0745721
