15
  This energy is -0.00281477 and Call times are: 17399
C	0.22923	-0.357659	0.00495204
O	-0.876593	-0.666721	-0.403559
O	0.545452	0.937366	0.349894
H	1.05721	-1.07122	0.132169
H	1.46884	1.03448	0.660584
C	3.87026	-1.51261	-0.206541
O	3.27952	-2.57695	-0.339826
O	4.74262	-1.0324	-1.14425
H	3.75208	-0.857891	0.668645
H	5.13817	-0.163649	-0.893577
C	5.52614	2.04584	0.766783
O	4.7318	1.50686	1.51418
O	5.88274	1.45394	-0.435324
H	6.0177	3.00689	0.956647
H	6.52693	1.9586	-0.971341
