15
  This energy is 4.573e-05 and Call times are: 7553
C	-0.306541	-0.280962	0.0870833
O	-0.253186	-0.199722	-1.12774
O	0.523634	0.451514	0.905837
H	-1.00858	-0.933617	0.62753
H	0.3663	0.28287	1.85737
C	19.2878	0.767177	-1.00983
O	20.1183	1.30323	-1.73266
O	19.3607	0.813217	0.35526
H	18.4211	0.208572	-1.39106
H	18.6191	0.33508	0.797216
C	16.2748	-1.17814	0.858193
O	16.3296	-1.14149	-0.356604
O	17.2428	-0.554787	1.63086
H	15.4938	-1.68248	1.43873
H	17.1179	-0.636276	2.59768
