15
  This energy is -0.0036984 and Call times are: 5292
C	0.381407	-0.127032	-0.137413
O	0.49306	1.0558	0.134029
O	-0.80803	-0.803364	0.0171376
H	1.2043	-0.747898	-0.522478
H	-0.746856	-1.74596	-0.240499
C	4.13923	-1.39845	-0.696184
O	3.59079	-2.378	-1.18534
O	5.49203	-1.33066	-0.505802
H	3.59794	-0.498477	-0.371185
H	5.78225	-0.477861	-0.102642
C	5.38893	2.07423	0.956275
O	4.20827	1.88379	0.73296
O	6.3336	1.1065	0.65022
H	5.80732	2.98473	1.40037
H	7.25757	1.34624	0.864191
