15
  This energy is 0.000449566 and Call times are: 21387
C	0.347832	-0.225943	0.0919427
O	0.729164	0.907826	-0.141294
O	-0.982606	-0.576137	0.033907
H	1.01884	-1.0545	0.364259
H	-1.1381	-1.5194	0.2453
C	11.7058	1.48569	-0.425478
O	11.1553	2.53475	-0.735328
O	11.2743	0.706575	0.612643
H	12.5848	1.08346	-0.94896
H	11.8201	-0.106169	0.737365
C	13.9063	-1.86004	0.1365
O	14.1825	-1.07901	-0.75443
O	12.8317	-1.62236	0.979935
H	14.4508	-2.78601	0.354023
H	12.6846	-2.30343	1.66657
