15
  This energy is 0.000109046 and Call times are: 21891
C	-0.153465	0.105886	0.381742
O	-0.102683	-1.11157	0.360086
O	0.24099	0.873154	-0.691465
H	-0.511774	0.689212	1.24328
H	0.144026	1.83385	-0.529394
C	15.5836	-0.42513	-1.66071
O	15.7889	-0.736711	-2.82705
O	15.0294	0.773934	-1.30568
H	15.8242	-1.07486	-0.807171
H	14.9273	0.877345	-0.32951
C	15.1418	0.0578095	2.32972
O	15.6225	-0.96475	1.87873
O	14.7344	1.0813	1.48768
H	14.9888	0.265702	3.39491
H	14.36	1.86491	1.93801
