15
  This energy is 7.8635e-05 and Call times are: 14647
C	0.0746861	0.418039	0.0124828
O	-0.75912	0.246256	-0.859586
O	0.593968	-0.627049	0.743377
H	0.479049	1.40358	0.28834
H	1.25276	-0.337641	1.40734
C	10.9959	-1.65711	-0.42501
O	10.7692	-2.8214	-0.729361
O	12.1574	-1.2681	0.183718
H	10.2934	-0.832575	-0.612516
H	12.1917	-0.298508	0.364636
C	11.1938	2.30782	0.3444
O	10.214	1.82944	-0.195119
O	12.2652	1.50634	0.708312
H	11.3248	3.36868	0.586712
H	13.0088	1.97661	1.13598
