15
  This energy is -0.000391702 and Call times are: 14395
C	-0.231679	-0.0419617	-0.353631
O	0.544314	-0.981594	-0.340569
O	-0.25095	0.904103	0.646699
H	-0.971387	0.131106	-1.14974
H	-0.925952	1.59836	0.501851
C	12.3308	1.56633	-0.616556
O	12.6283	2.66712	-1.06302
O	12.6875	1.16068	0.640076
H	11.7576	0.816855	-1.18071
H	12.3745	0.249542	0.854311
C	11.0774	-2.16285	0.318412
O	10.8269	-1.67945	-0.769536
O	11.798	-1.44799	1.26303
H	10.7749	-3.16336	0.648131
H	11.952	-1.91547	2.10846
