15
  This energy is -2.4585e-05 and Call times are: 21807
C	-0.266052	0.011103	-0.331034
O	0.846573	-0.171878	-0.793452
O	-0.482898	0.140188	1.02262
H	-1.17847	0.0879954	-0.94135
H	-1.42548	0.282747	1.24582
C	15.5086	-1.73365	-0.116095
O	15.5279	-2.95507	-0.201835
O	14.3854	-1.0382	0.238349
H	16.3827	-1.09709	-0.314359
H	14.5285	-0.0620249	0.263718
C	16.0329	2.2742	0.00287259
O	16.9531	1.53754	-0.298167
O	14.7835	1.75831	0.311971
H	16.0929	3.36719	0.0580891
H	14.1049	2.42429	0.542077
