15
  This energy is 0.000465005 and Call times are: 9669
C	-0.321158	-0.204259	-0.188749
O	0.587649	-1.01073	-0.0942874
O	-0.201164	1.08911	0.268263
H	-1.29912	-0.432709	-0.638536
H	-1.01071	1.62077	0.124814
C	13.2027	-0.880302	0.0481636
O	12.1508	-1.50552	0.0945639
O	13.5634	-0.125641	-1.0341
H	13.9403	-0.871371	0.863275
H	14.4379	0.317584	-0.9207
C	16.7806	0.959818	0.45342
O	16.3407	0.257362	1.34397
O	16.0671	1.14628	-0.720729
H	17.7386	1.49136	0.4852
H	16.4976	1.72646	-1.38028
