15
  This energy is -3.9558e-05 and Call times are: 22059
C	-0.279345	-0.129131	-0.292886
O	0.123729	0.959972	-0.662525
O	0.165589	-0.717059	0.870061
H	-1.01986	-0.728058	-0.844094
H	-0.24572	-1.5896	1.03769
C	11.1298	0.251648	1.70381
O	11.3055	0.4286	2.90273
O	9.88348	0.153858	1.14891
H	11.9496	0.157063	0.977406
H	9.90634	0.0123775	0.172443
C	11.1593	-0.331455	-2.29757
O	12.2016	-0.226836	-1.67889
O	9.9375	-0.253574	-1.6467
H	11.0819	-0.490271	-3.37926
H	9.15322	-0.34849	-2.22365
