15
  This energy is -0.015181 and Call times are: 3582
C	0.201446	-0.256485	0.272261
O	-0.989745	-0.461684	0.427839
O	0.672208	0.657757	-0.643499
H	0.99143	-0.772869	0.838101
H	1.64952	0.714977	-0.657183
C	3.9994	1.11765	1.13099
O	3.5161	1.90303	1.9367
O	3.39733	0.822366	-0.0611655
H	4.94861	0.58757	1.29405
H	3.90869	0.173312	-0.60086
C	6.04829	-1.54036	-1.12487
O	6.47353	-1.19053	-0.0400331
O	4.85229	-1.03706	-1.61358
H	6.54162	-2.25392	-1.79475
H	4.5888	-1.37421	-2.49329
