15
  This energy is -0.000750163 and Call times are: 15949
C	-0.0614318	-0.191401	0.374276
O	1.11092	-0.365358	0.0904002
O	-0.91624	0.509158	-0.447059
H	-0.532326	-0.570832	1.29362
H	-1.82587	0.567596	-0.0896249
C	11.2538	1.08221	0.858792
O	11.9899	1.85562	1.45837
O	11.3775	-0.276518	0.956044
H	10.4386	1.40913	0.19762
H	10.7116	-0.763903	0.41467
C	8.55201	-0.970344	-1.34108
O	8.55233	0.246237	-1.33752
O	9.47683	-1.6819	-0.592093
H	7.8557	-1.59858	-1.90832
H	9.40165	-2.65518	-0.655721
