15
  This energy is -0.00422026 and Call times are: 22143
C	0.330784	0.0852833	-0.252585
O	0.694768	0.33683	0.88297
O	-0.935626	-0.379858	-0.528119
H	0.968519	0.204879	-1.14135
H	-1.08451	-0.537449	-1.4829
C	8.11079	0.812067	-0.607717
O	9.11005	1.37232	-1.04036
O	7.11013	1.48573	0.0370736
H	7.93317	-0.268996	-0.698962
H	6.37278	0.896679	0.3258
C	5.06048	-1.5509	0.602171
O	6.0156	-2.02379	0.0154962
O	4.9946	-0.192057	0.870079
H	4.19644	-2.12129	0.961849
H	4.19057	0.0986501	1.34548
