15
  This energy is -0.00395351 and Call times are: 18450
C	0.288526	-0.052213	-0.307437
O	0.913539	0.0437132	0.73439
O	-1.08644	0.0128531	-0.343636
H	0.757374	-0.196475	-1.29246
H	-1.44877	-0.0795826	-1.2485
C	5.7804	0.682405	-1.23039
O	5.06724	1.15466	-2.10672
O	5.76993	1.14575	0.0565105
H	6.48319	-0.145782	-1.4
H	6.39895	0.663806	0.644804
C	8.34122	-1.25349	1.22856
O	8.25111	-1.56699	0.0565195
O	7.56924	-0.226054	1.74914
H	9.00854	-1.72682	1.95789
H	7.70807	-0.0436084	2.70015
