15
  This energy is -0.00119926 and Call times are: 11118
C	0.201842	-0.282492	0.244844
O	0.984508	0.634255	0.0652475
O	-1.06369	-0.280109	-0.297828
H	0.431642	-1.17607	0.844526
H	-1.57827	-1.08091	-0.0686215
C	6.89896	-1.12601	-0.971122
O	7.52265	-1.91909	-1.66511
O	7.34167	-0.715064	0.256083
H	5.93971	-0.680396	-1.27084
H	6.72978	-0.0751442	0.692112
C	4.43047	1.49705	0.866795
O	4.15509	1.05217	-0.231536
O	5.59577	1.11599	1.51443
H	3.81676	2.20935	1.43007
H	5.73479	1.52385	2.39267
