15
  This energy is 0.000869025 and Call times are: 21219
C	-0.164565	-0.0639649	0.386416
O	-0.499553	1.05984	0.0546098
O	0.600768	-0.868851	-0.42752
H	-0.438091	-0.526736	1.34659
H	0.79118	-1.74275	-0.0292181
C	7.81998	1.35738	-0.101033
O	7.06005	2.31589	-0.158665
O	8.15011	0.612568	-1.19975
H	8.29757	1.01604	0.828468
H	8.77237	-0.124945	-0.992647
C	10.367	-1.68316	0.686105
O	9.99274	-0.942297	1.57555
O	9.92992	-1.50345	-0.617433
H	11.054	-2.5272	0.816396
H	10.2825	-2.14576	-1.26559
