15
  This energy is -0.000349671 and Call times are: 14521
C	-0.121504	-0.401248	-0.0687559
O	0.232944	-0.346865	1.096
O	-0.0854407	0.699	-0.895934
H	-0.494513	-1.3158	-0.553904
H	-0.399741	0.504743	-1.80262
C	10.6523	-1.13798	0.785369
O	11.3874	-1.95029	1.33246
O	10.7405	0.207277	1.01646
H	9.86627	-1.41632	0.0689342
H	10.0811	0.73085	0.501669
C	7.97172	1.06094	-1.29578
O	8.00131	-0.149981	-1.40928
O	8.85507	1.71578	-0.451124
H	7.27848	1.72643	-1.82287
H	8.75851	2.68886	-0.423368
