15
  This energy is -0.00750666 and Call times are: 19629
C	-0.333857	-0.216784	0.14844
O	0.645784	-0.668464	0.715481
O	-0.239796	0.800539	-0.774747
H	-1.36041	-0.57415	0.319873
H	-1.10774	1.05922	-1.14672
C	5.99382	1.34274	-0.140389
O	6.77132	2.28475	-0.228059
O	4.96098	1.15661	-1.0176
H	6.05772	0.573387	0.642288
H	4.42383	0.353649	-0.815746
C	3.75391	-1.93281	0.637687
O	4.70506	-1.65094	1.34193
O	3.41501	-1.13885	-0.447367
H	3.09904	-2.79997	0.780756
H	2.6365	-1.442	-0.956293
