15
  This energy is 0.000260937 and Call times are: 18828
C	0.20165	-0.0886163	0.363283
O	-0.18682	1.06241	0.460626
O	-0.0338209	-0.846901	-0.761718
H	0.763918	-0.614363	1.14964
H	0.336794	-1.75079	-0.696644
C	10.7098	0.879787	1.4836
O	10.8665	1.49026	2.53352
O	9.85245	1.30443	0.506081
H	11.2387	-0.0522361	1.23825
H	9.83682	0.706766	-0.279144
C	10.6007	-1.53185	-1.76046
O	11.3228	-1.79429	-0.817231
O	9.79834	-0.401076	-1.74618
H	10.5136	-2.13197	-2.67346
H	9.25139	-0.270224	-2.54662
