15
  This energy is 0.00106137 and Call times are: 5572
C	0.158094	-0.050331	0.391105
O	-0.215974	-1.1525	0.0298035
O	0.0345858	1.06256	-0.41032
H	0.61867	0.150185	1.37017
H	0.377683	1.87649	0.0120686
C	10.2223	-0.219776	-0.0677877
O	11.4378	-0.361487	-0.112019
O	9.35182	-1.23255	-0.363587
H	9.73053	0.723287	0.210411
H	8.40571	-0.963708	-0.282178
C	6.32798	0.823236	0.246064
O	7.20675	1.63085	0.481887
O	6.63978	-0.472758	-0.135706
H	5.25266	1.02615	0.307704
H	5.8699	-1.05219	-0.304586
