15
  This energy is -0.00612931 and Call times are: 4110
C	-0.310057	-0.231897	0.174868
O	-0.846428	0.756979	-0.29383
O	1.04859	-0.437683	0.0865521
H	-0.852349	-1.0326	0.699931
H	1.33569	-1.27369	0.507591
C	4.71525	0.807457	1.48145
O	5.00267	1.36598	2.53264
O	4.9593	1.36947	0.258549
H	4.24137	-0.183174	1.4299
H	4.67187	0.797618	-0.492713
C	3.55591	-1.48981	-1.6379
O	3.39652	-1.87194	-0.493933
O	4.13803	-0.258904	-1.89975
H	3.27012	-2.05068	-2.53514
H	4.22599	-0.0347799	-2.84791
