15
  This energy is 0.00025904 and Call times are: 3246
C	-0.41103	0.100271	0.0386108
O	-0.305544	-1.05588	0.409338
O	0.672284	0.829712	-0.397758
H	-1.36202	0.653589	0.019747
H	0.435665	1.74192	-0.66326
C	7.86904	0.9064	-0.387157
O	6.86576	1.5561	-0.653434
O	8.01857	-0.401872	-0.757245
H	8.72714	1.31369	0.16633
H	8.88063	-0.787423	-0.470466
C	11.3835	-0.72991	0.763016
O	11.123	0.428481	1.02828
O	10.4829	-1.51638	0.0609282
H	12.3105	-1.24613	1.0378
H	10.7765	-2.43427	-0.107045
