15
  This energy is -0.00374035 and Call times are: 19756
C	-0.169218	-0.0487686	-0.386623
O	-0.799204	0.845083	0.15133
O	0.868753	-0.69499	0.246688
H	-0.369317	-0.412125	-1.40586
H	1.28037	-1.38927	-0.307518
C	4.07919	-0.804771	1.4635
O	4.41386	-1.38406	2.48917
O	4.11016	0.557444	1.34387
H	3.72867	-1.3235	0.559826
H	3.81148	0.873426	0.457877
C	2.86313	0.550616	-2.14704
O	2.88432	-0.642042	-1.90787
O	3.25473	1.47308	-1.18877
H	2.54799	0.997228	-3.09705
H	3.2051	2.40901	-1.46902
