15
  This energy is -0.00479983 and Call times are: 18408
C	0.156223	-0.124679	-0.374887
O	-1.04514	0.00633558	-0.532385
O	0.76532	0.116883	0.836195
H	0.847768	-0.441292	-1.17014
H	1.73306	-0.0297427	0.812164
C	4.91961	-1.1465	1.30013
O	4.99088	-1.95831	2.21417
O	5.96093	-0.327327	0.960252
H	4.02247	-1.00715	0.680224
H	5.75005	0.270414	0.20377
C	4.11383	1.32927	-1.79391
O	3.2732	0.547887	-1.39035
O	5.36697	1.39007	-1.20357
H	3.97474	2.03108	-2.62422
H	5.97784	2.04724	-1.59335
