15
  This energy is -0.00507078 and Call times are: 19587
C	0.0582481	-0.166919	0.38631
O	0.44795	-1.00379	-0.409321
O	-0.450988	1.04634	-0.0195881
H	0.0779924	-0.30306	1.47809
H	-0.723338	1.61522	0.72928
C	3.30516	1.097	0.37296
O	2.38713	1.86069	0.644192
O	4.29694	1.42272	-0.510891
H	3.41075	0.0944134	0.811415
H	4.96408	0.704201	-0.623536
C	6.06914	-1.81109	-0.132311
O	5.13251	-1.97162	0.627318
O	6.21155	-0.628777	-0.842534
H	6.85788	-2.54746	-0.324508
H	6.99372	-0.588457	-1.42869
