15
  This energy is 0.00177964 and Call times are: 2350
C	0.21612	0.0340898	0.364171
O	1.00829	0.284468	-0.527472
O	-1.09862	-0.283548	0.106018
H	0.475212	0.0393051	1.43363
H	-1.61493	-0.459802	0.919012
C	5.7884	1.62897	-0.594232
O	5.71837	2.77379	-1.02325
O	5.12783	1.22347	0.532764
H	6.38169	0.836498	-1.07232
H	5.28323	0.273322	0.74976
C	6.389	-2.25743	0.347593
O	6.91865	-1.76829	-0.632356
O	5.56772	-1.49532	1.16445
H	6.50057	-3.29893	0.670271
H	5.18537	-1.97151	1.92867
