15
  This energy is 0.00173729 and Call times are: 1246
C	0.284987	-0.158923	0.272059
O	0.0152242	-1.05902	-0.50402
O	-0.29328	1.08704	0.17587
H	1.00025	-0.259175	1.10227
H	0.0194058	1.70677	0.866354
C	6.73595	-0.449739	-1.62074
O	7.03619	-0.755876	-2.76778
O	7.12203	-1.18886	-0.536516
H	6.13667	0.435901	-1.36563
H	6.80307	-0.813928	0.318888
C	5.45569	1.03691	1.91517
O	5.18203	1.59857	0.87127
O	6.21208	-0.125174	1.91805
H	5.14807	1.37422	2.91161
H	6.38276	-0.506998	2.80239
