15
  This energy is -0.000244701 and Call times are: 23025
C	0.260555	0.29773	-0.154784
O	-0.820065	0.479158	-0.688254
O	0.464995	-0.713627	0.757044
H	1.15156	0.913293	-0.349976
H	1.38129	-0.737134	1.10122
C	17.4481	0.509046	1.19708
O	16.6455	0.865549	2.05058
O	17.1348	0.460907	-0.133513
H	18.4785	0.200152	1.42366
H	17.886	0.154282	-0.695442
C	20.4879	-0.743423	-1.15712
O	20.6331	-0.654592	0.0475034
O	19.2782	-0.417984	-1.75146
H	21.2595	-1.07346	-1.86212
H	19.2532	-0.519565	-2.72411
