15
  This energy is 0.000717834 and Call times are: 3372
C	-0.322141	0.0860883	0.263258
O	-0.699865	-0.825977	-0.451381
O	0.931618	0.641541	0.13824
H	-0.936604	0.538246	1.05629
H	1.09419	1.36384	0.778917
C	10.2968	-1.29881	-0.915224
O	9.81357	-2.21731	-1.5652
O	9.53838	-0.472334	-0.132468
H	11.3701	-1.06137	-0.904509
H	10.0718	0.218319	0.32855
C	12.4282	1.55523	0.99878
O	12.981	0.753177	0.269952
O	11.0556	1.51052	1.19061
H	12.9324	2.35621	1.55151
H	10.6983	2.19375	1.79269
