15
  This energy is 0.000869625 and Call times are: 20337
C	-0.419556	-0.0281219	-0.0606008
O	-0.218389	-0.362323	1.09399
O	0.604042	0.346128	-0.902179
H	-1.41685	0.00386115	-0.524587
H	0.291844	0.588015	-1.79807
C	7.62374	-1.06895	1.35845
O	7.49617	-1.83253	2.30726
O	7.9556	0.248897	1.51354
H	7.48417	-1.37296	0.31123
H	8.02102	0.733355	0.656195
C	7.9045	0.970187	-2.1222
O	7.61614	-0.211724	-2.11796
O	8.14346	1.64606	-0.935334
H	8.00038	1.59214	-3.01957
H	8.3685	2.59284	-1.03502
