15
  This energy is -0.00173074 and Call times are: 19394
C	-0.303033	0.0656531	0.290433
O	0.722778	-0.15303	0.911025
O	-0.337752	0.0700438	-1.0861
H	-1.27364	0.274924	0.76481
H	-1.22883	0.260402	-1.44436
C	3.49687	1.52911	0.43192
O	2.98879	2.60153	0.734136
O	4.85083	1.33618	0.409922
H	2.91535	0.638158	0.155108
H	5.1053	0.419479	0.147368
C	4.60149	-2.21026	-0.639913
O	3.42541	-1.90475	-0.579923
O	5.59053	-1.28501	-0.342798
H	4.98212	-3.19888	-0.921042
H	6.50702	-1.61881	-0.417647
