15
  This energy is -0.00193575 and Call times are: 5250
C	0.152733	-0.324103	-0.228299
O	-0.18628	-0.79231	0.844594
O	0.0137481	1.01481	-0.518236
H	0.591331	-0.917243	-1.04483
H	0.328308	1.24503	-1.41638
C	7.51135	1.52135	0.215196
O	8.07824	2.5978	0.354739
O	7.60748	0.513991	1.13546
H	6.88292	1.27388	-0.652215
H	7.09446	-0.29005	0.88177
C	5.43064	-1.80269	-0.771343
O	5.4301	-0.831172	-1.50362
O	6.14384	-1.79403	0.417707
H	4.89446	-2.73862	-0.965847
H	6.08653	-2.61795	0.94197
