15
  This energy is -0.00489977 and Call times are: 17357
C	-0.0359082	0.340606	0.251373
O	-0.511275	0.659009	-0.824681
O	0.484714	-0.913838	0.47807
H	0.0187556	1.01331	1.1205
H	0.830345	-1.02452	1.38741
C	3.9552	0.557119	-0.0578599
O	2.8001	0.960907	-0.105574
O	4.30332	-0.604846	0.574241
H	4.80329	1.08757	-0.513854
H	5.27054	-0.795049	0.525928
C	7.90909	-0.274885	-0.220147
O	7.46527	0.7298	-0.743324
O	7.07125	-1.15794	0.443778
H	8.96429	-0.571275	-0.219282
H	7.51515	-1.93781	0.833313
