15
  This energy is 3.703e-05 and Call times are: 9585
C	0.243843	0.316452	0.144531
O	-0.343569	0.755518	-0.828822
O	0.0625336	-0.974955	0.586644
H	0.957202	0.900733	0.745063
H	0.599634	-1.18607	1.37757
C	10.0717	0.262368	-1.50471
O	9.47685	0.440812	-2.56013
O	11.3608	0.674713	-1.30743
H	9.62613	-0.239179	-0.63378
H	11.7008	0.459245	-0.406298
C	11.5215	-0.595523	2.1714
O	10.3863	-0.907423	1.8647
O	12.3449	0.060696	1.26918
H	11.9878	-0.791172	3.14381
H	13.2402	0.271898	1.60213
