15
  This energy is -0.013307 and Call times are: 18198
C	-0.0045778	0.417817	-0.0768033
O	-0.41941	0.275308	1.06023
O	0.373187	-0.652369	-0.856589
H	0.103081	1.39454	-0.572104
H	0.68501	-0.385175	-1.7454
C	3.60093	0.193329	-1.24257
O	2.76552	0.334619	-2.1267
O	3.28555	-0.288805	-0.00201085
H	4.66515	0.439	-1.36774
H	4.06594	-0.344883	0.599548
C	6.75997	-0.0571885	1.26933
O	6.90234	0.355828	0.133883
O	5.51275	-0.451428	1.72931
H	7.56249	-0.155444	2.00932
H	5.49309	-0.769525	2.6542
