15
  This energy is 0.00167624 and Call times are: 16599
C	-0.00192719	-0.286478	0.313715
O	0.752559	-0.719931	-0.539581
O	-0.65966	0.914231	0.166218
H	-0.22071	-0.805188	1.25922
H	-1.23072	1.13254	0.930967
C	5.44609	0.863061	-1.30608
O	4.90914	1.48	-2.21749
O	6.21538	-0.24716	-1.52173
H	5.35744	1.14482	-0.247158
H	6.57882	-0.631961	-0.688742
C	6.96227	-0.760794	2.0727
O	6.26005	0.231395	2.12302
O	7.25938	-1.35835	0.857284
H	7.41031	-1.26024	2.93936
H	7.83039	-2.1507	0.913036
