15
  This energy is -0.000519017 and Call times are: 12636
C	-0.173732	-0.011198	0.387533
O	-0.672088	-0.931733	-0.236569
O	0.761442	0.830058	-0.172651
H	-0.421363	0.225374	1.43329
H	1.07184	1.52162	0.447023
C	3.34975	-1.69216	-0.181785
O	3.09703	-2.88477	-0.297463
O	4.01609	-0.984166	-1.14389
H	3.06618	-1.0936	0.695649
H	4.14337	-0.0350236	-0.905235
C	3.90377	2.20564	0.741341
O	3.32432	1.46281	1.51111
O	4.38784	1.73456	-0.46958
H	4.09383	3.27077	0.916444
H	4.83961	2.40216	-1.02383
