15
  This energy is 0.00130098 and Call times are: 1872
C	0.331461	0.259135	0.0589363
O	0.10246	0.264841	-1.13805
O	-0.415611	-0.48732	0.942542
H	1.13927	0.838164	0.531242
H	-0.115994	-0.392731	1.86984
C	8.31731	0.266806	-1.71294
O	8.40481	0.467507	-2.91778
O	7.83719	-0.90444	-1.19471
H	8.61377	1.0024	-0.951633
H	7.82887	-0.914494	-0.207869
C	8.25673	0.167073	2.32912
O	8.66129	1.15135	1.73954
O	7.80701	-0.943011	1.63053
H	8.2081	0.0610664	3.41893
H	7.50065	-1.6872	2.18668
