15
  This energy is 0.000437375 and Call times are: 15991
C	0.198626	-0.226245	-0.299752
O	0.199696	0.929145	-0.687463
O	-0.370625	-0.59458	0.898727
H	0.643389	-1.06162	-0.861211
H	-0.295626	-1.5543	1.07739
C	13.544	0.962621	0.08611
O	14.5582	1.64491	0.159544
O	13.2143	0.252208	-1.03528
H	12.8184	0.862933	0.905997
H	12.3686	-0.247562	-0.940125
C	10.0846	-1.10535	0.415247
O	10.4941	-0.431158	1.34147
O	10.793	-1.18094	-0.774302
H	9.15969	-1.6933	0.4245
H	10.3887	-1.74614	-1.46283
