15
  This energy is -0.00219005 and Call times are: 2082
C	0.318622	-0.0970361	0.263732
O	0.26309	-1.00119	-0.551542
O	-0.544206	0.975419	0.225823
H	1.04835	-0.0574616	1.08643
H	-0.380621	1.62183	0.942756
C	4.5789	1.28158	-1.02056
O	4.98904	2.19258	-1.72869
O	4.13006	0.0955863	-1.53327
H	4.5363	1.33721	0.0765515
H	3.83326	-0.537648	-0.836888
C	3.34604	-1.35475	1.78688
O	3.76957	-0.260396	2.10796
O	3.27565	-1.72426	0.452305
H	2.99375	-2.12346	2.4842
H	2.9225	-2.62168	0.288283
