15
  This energy is -8.4625e-05 and Call times are: 20421
C	-0.0950183	0.182045	-0.371916
O	-0.825445	0.6971	0.456602
O	0.818946	-0.791594	-0.0361122
H	-0.100304	0.443555	-1.44079
H	1.33481	-1.11145	-0.804347
C	10.0818	0.235818	0.811461
O	9.0056	0.39409	1.37395
O	11.2352	0.826485	1.24932
H	10.2129	-0.387826	-0.084334
H	12.0184	0.602763	0.692029
C	13.3271	-0.642496	-1.43531
O	12.2366	-1.10338	-1.71515
O	13.4837	0.194173	-0.340771
H	14.2525	-0.831246	-1.99152
H	14.3952	0.516941	-0.192244
