15
  This energy is 0.000535591 and Call times are: 17104
C	0.0161812	0.178643	-0.385117
O	1.11743	-0.304025	-0.186305
O	-0.998194	0.0918063	0.542014
H	-0.260593	0.716136	-1.30457
H	-1.82446	0.524846	0.244742
C	4.22643	0.195935	-1.3521
O	3.47723	0.324885	-2.31213
O	4.06614	0.904076	-0.192896
H	5.0834	-0.492537	-1.3387
H	4.74826	0.689467	0.487308
C	6.99537	-0.639475	1.47402
O	7.02271	-1.20034	0.394779
O	6.01557	0.298727	1.76098
H	7.70674	-0.809011	2.29041
H	6.0717	0.697998	2.65228
