15
  This energy is 0.00111289 and Call times are: 10782
C	-0.119035	0.0562304	0.40393
O	1.06069	0.357354	0.350761
O	-0.815511	-0.369365	-0.70506
H	-0.721097	0.0966322	1.32414
H	-1.7527	-0.575528	-0.510697
C	8.18604	1.08146	1.00709
O	7.55286	1.85193	1.71774
O	7.6551	-0.0857125	0.53095
H	9.22468	1.25898	0.693573
H	8.28798	-0.597602	-0.0271454
C	10.735	-1.06221	-1.28621
O	11.0812	-0.00234042	-0.799464
O	9.45982	-1.56044	-1.06671
H	11.3637	-1.70114	-1.91694
H	9.2697	-2.41818	-1.49697
