15
  This energy is 0.00112007 and Call times are: 17442
C	-0.253164	-0.209363	0.26938
O	0.877841	-0.317171	0.710345
O	-0.523043	0.48444	-0.889012
H	-1.14193	-0.647847	0.747643
H	-1.4746	0.486019	-1.11953
C	6.72041	1.27065	1.17901
O	6.79175	2.1684	2.00879
O	7.81548	0.565335	0.761563
H	5.78047	0.957099	0.702815
H	7.59671	-0.124782	0.0908137
C	5.8864	-1.57192	-1.57346
O	5.00172	-0.872117	-1.11772
O	7.2005	-1.41208	-1.16094
H	5.74364	-2.36159	-2.32
H	7.84375	-2.01804	-1.58048
