15
  This energy is -0.00823733 and Call times are: 18492
C	0.250542	0.318281	0.128125
O	-0.698538	0.302196	0.892477
O	0.367997	-0.578248	-0.910387
H	1.08172	1.03604	0.19795
H	1.18104	-0.444606	-1.43927
C	4.18283	-0.907565	-0.432513
O	3.18086	-1.53759	-0.74666
O	5.03436	-1.3229	0.55405
H	4.48165	0.0360962	-0.910826
H	5.79536	-0.709335	0.689876
C	7.32161	1.56919	0.172144
O	6.48795	1.82132	-0.67728
O	7.21598	0.428086	0.952721
H	8.19854	2.18692	0.397281
H	7.93097	0.3068	1.60927
