15
  This energy is -0.000251392 and Call times are: 8015
C	-0.257182	0.329915	-0.0741861
O	-0.935023	-0.510968	0.490343
O	1.07454	0.125155	-0.358185
H	-0.640783	1.30819	-0.400886
H	1.48876	0.886704	-0.813234
C	16.0145	1.16582	-0.794221
O	16.7183	1.99365	-1.35899
O	16.5345	0.137125	-0.057851
H	14.9158	1.1774	-0.829614
H	15.841	-0.444943	0.334774
C	13.2187	-1.25659	0.839009
O	12.891	-0.301886	0.159844
O	14.5569	-1.53713	1.06923
H	12.5249	-1.95877	1.31533
H	14.7263	-2.32337	1.62613
