15
  This energy is -0.00919753 and Call times are: 17484
C	0.257833	0.23899	-0.23853
O	0.453809	0.573993	0.916724
O	-0.652158	-0.739302	-0.571595
H	0.779861	0.679277	-1.1014
H	-0.701891	-0.901314	-1.5359
C	5.40495	-0.405961	-1.42667
O	6.0411	-0.679205	-2.43673
O	5.14002	-1.32792	-0.451626
H	4.99606	0.592992	-1.21815
H	4.61805	-0.956024	0.298883
C	3.26538	1.05974	1.67589
O	3.56985	1.77519	0.740202
O	3.64389	-0.273922	1.70128
H	2.68914	1.3791	2.55181
H	3.35528	-0.772186	2.49212
