15
  This energy is 0.000307213 and Call times are: 15151
C	0.289006	0.194405	0.243255
O	0.517082	0.54279	-0.902108
O	-0.738396	-0.668084	0.554107
H	0.871761	0.530984	1.1139
H	-0.80049	-0.857234	1.51274
C	14.431	0.173254	-1.69692
O	14.673	0.305597	-2.89002
O	13.5349	-0.746128	-1.22511
H	14.9077	0.775209	-0.910146
H	13.4497	-0.731979	-0.241968
C	14.0369	0.185584	2.32755
O	14.8025	0.954603	1.77753
O	13.2816	-0.712572	1.58898
H	13.8729	0.126022	3.4096
H	12.6941	-1.29153	2.11485
