15
  This energy is -0.00333651 and Call times are: 16431
C	0.146349	0.261195	-0.301413
O	-0.889788	-0.21258	-0.734085
O	0.638452	-0.0696569	0.941342
H	0.768801	0.981134	-0.853812
H	1.47753	0.388161	1.15336
C	7.2875	-0.992232	-1.39712
O	7.47908	-1.69909	-2.37855
O	8.1125	0.0474161	-1.06634
H	6.44514	-1.13033	-0.704344
H	7.82617	0.521874	-0.249682
C	6.16581	0.989946	1.94424
O	5.51819	0.0433801	1.53842
O	7.30287	1.41159	1.27201
H	5.92958	1.57801	2.83848
H	7.75956	2.17957	1.67029
