15
  This energy is -0.00987205 and Call times are: 13626
C	0.418229	0.0503017	0.0551769
O	-0.0427796	-0.204288	1.15422
O	-0.373153	0.13018	-1.06884
H	1.48641	0.235382	-0.133592
H	0.134955	0.341829	-1.87855
C	6.3861	1.28586	-0.838593
O	5.82467	2.19723	-1.43339
O	5.7003	0.326763	-0.145254
H	7.47795	1.16078	-0.810526
H	6.29215	-0.339172	0.279324
C	8.75958	-1.4715	0.926459
O	9.24226	-0.562486	0.277765
O	7.38575	-1.58406	1.07637
H	9.33189	-2.25628	1.43427
H	7.08797	-2.34524	1.61388
