15
  This energy is 8.2395e-05 and Call times are: 15655
C	-0.41573	0.0762365	-0.0429732
O	-0.210094	-0.0295135	1.1536
O	0.592993	-0.0489301	-0.971887
H	-1.40572	0.277121	-0.479392
H	0.278875	0.0601008	-1.89278
C	12.305	-1.56132	-0.476779
O	11.879	-2.66274	-0.800792
O	13.136	-0.828386	-1.27869
H	12.0592	-1.0714	0.476188
H	13.3924	0.0369997	-0.879443
C	13.3926	1.99642	1.10798
O	12.6547	1.24587	1.71814
O	13.8781	1.65073	-0.143947
H	13.7331	2.97454	1.46661
H	14.464	2.31472	-0.55964
