15
  This energy is 0.000303596 and Call times are: 10110
C	0.374819	-0.081138	-0.182805
O	-0.45967	-0.687813	-0.83151
O	0.0359582	0.684326	0.910497
H	1.45189	-0.0904988	-0.408026
H	0.809815	1.11194	1.33109
C	5.89766	-1.36504	-0.813942
O	5.40583	-2.32137	-1.3997
O	5.90363	-1.26082	0.549879
H	6.37185	-0.516621	-1.32766
H	6.33607	-0.433977	0.871351
C	7.65551	2.00602	0.563669
O	7.58304	1.78875	-0.631165
O	7.13773	1.1044	1.48104
H	8.11445	2.89252	1.01619
H	7.24109	1.36148	2.41923
