15
  This energy is -0.00463646 and Call times are: 554
C	-0.211592	0.364762	0.0516542
O	-1.0536	-0.49202	-0.153772
O	1.134	0.0742739	0.0844447
H	-0.446371	1.42564	0.22579
H	1.68971	0.861143	0.259439
C	6.17971	1.70388	0.318469
O	6.09206	2.90692	0.52964
O	6.49714	0.805439	1.29976
H	6.01272	1.24657	-0.667203
H	6.52873	-0.12572	0.97423
C	6.32681	-2.13073	-0.956655
O	6.05511	-1.23086	-1.72898
O	6.59246	-1.86388	0.377808
H	6.38689	-3.1924	-1.22226
H	6.80114	-2.64801	0.924223
