15
  This energy is -0.0087139 and Call times are: 12762
C	0.321385	-0.0685745	-0.269257
O	0.827012	0.135915	0.820593
O	-1.04265	-0.0521299	-0.456911
H	0.8978	-0.280358	-1.18238
H	-1.30219	-0.232875	-1.38351
C	3.7421	-0.189634	-1.72621
O	3.70496	-0.336468	-2.94138
O	3.48234	1.00933	-1.1213
H	3.98476	-0.999715	-1.02374
H	3.55166	0.967789	-0.137689
C	4.01328	-0.29694	2.307
O	4.22002	-1.29663	1.64521
O	3.68023	0.902041	1.69538
H	4.06631	-0.243031	3.40042
H	3.53197	1.65206	2.30568
