15
  This energy is -0.00122292 and Call times are: 9291
C	-0.109676	-0.265596	0.312922
O	1.10587	-0.184001	0.344931
O	-0.864426	0.422603	-0.610552
H	-0.700953	-0.88392	1.005
H	-1.82513	0.259549	-0.515314
C	10.8508	0.944237	0.750363
O	11.7308	1.60241	1.29076
O	10.4375	1.18007	-0.532002
H	10.3224	0.115856	1.2435
H	9.72194	0.566862	-0.825255
C	7.91636	-1.53744	-0.507514
O	8.37563	-1.63945	0.614425
O	8.38709	-0.569012	-1.38109
H	7.12263	-2.16868	-0.923225
H	7.95984	-0.561007	-2.26107
