15
  This energy is -5.6544e-05 and Call times are: 25505
C	0.165417	0.202437	0.334884
O	0.346402	0.929039	-0.626646
O	-0.466974	-1.01551	0.221964
H	0.484628	0.449506	1.35859
H	-0.540642	-1.48749	1.07661
C	16.5234	-1.61653	-0.596699
O	16.669	-2.75957	-1.01122
O	17.4371	-0.626188	-0.831804
H	15.6552	-1.29069	-0.00615763
H	17.1786	0.23912	-0.43374
C	15.5193	1.95448	1.01315
O	14.7929	0.987873	1.14771
O	16.7077	1.85546	0.305624
H	15.3198	2.95365	1.41706
H	17.227	2.68256	0.248853
