15
  This energy is 8.914e-06 and Call times are: 22899
C	0.416671	-0.0688491	0.0462162
O	0.286841	1.12926	-0.135261
O	-0.661382	-0.925077	0.0735134
H	1.38722	-0.563685	0.201359
H	-0.404209	-1.85701	0.228329
C	15.9301	1.23153	0.749499
O	15.238	2.08978	1.28234
O	17.0489	1.53436	0.0232487
H	15.7147	0.155066	0.807928
H	17.4991	0.735698	-0.3421
C	17.8178	-2.00276	-0.776224
O	16.8086	-2.13169	-0.109197
O	18.3447	-0.745422	-1.0294
H	18.3866	-2.82577	-1.22385
H	19.1572	-0.737971	-1.57408
