15
  This energy is -0.000219059 and Call times are: 9837
C	0.0114106	-0.29512	0.305392
O	-0.597761	-0.791439	-0.626178
O	0.514268	0.98558	0.250517
H	0.210137	-0.815326	1.2545
H	0.979097	1.24811	1.07126
C	13.6942	-1.3759	0.871237
O	13.2754	-2.3538	1.47778
O	13.2439	-0.108152	1.11796
H	14.4601	-1.43139	0.0844638
H	13.6769	0.572238	0.549144
C	15.4317	1.45709	-1.43248
O	15.742	0.286642	-1.55008
O	14.4759	1.84777	-0.507066
H	15.8542	2.2827	-2.0166
H	14.2904	2.80795	-0.482313
