15
  This energy is -9.4479e-05 and Call times are: 24875
C	0.392235	-0.0291131	0.160606
O	0.117016	-1.13533	-0.270425
O	-0.488095	1.02663	0.0799844
H	1.34936	0.220096	0.643004
H	-0.130349	1.85171	0.467107
C	10.3504	-0.743797	-0.603661
O	9.32155	-1.26216	-1.0189
O	11.5668	-0.944702	-1.19589
H	10.3852	-0.0793239	0.271457
H	12.2992	-0.459483	-0.746251
C	13.3931	1.21849	1.19723
O	12.2574	1.3113	1.62347
O	13.6716	0.438561	0.0851448
H	14.2699	1.71662	1.62657
H	14.6114	0.423087	-0.186029
