15
  This energy is 0.00112308 and Call times are: 14143
C	-0.372403	-0.141516	-0.14758
O	0.103502	-1.05246	0.507363
O	0.274765	1.06417	-0.301063
H	-1.34213	-0.199681	-0.664437
H	-0.22711	1.69874	-0.85247
C	3.45529	-1.38919	-0.443597
O	2.77865	-2.36006	-0.758479
O	4.75834	-1.49892	-0.0424768
H	3.07836	-0.356546	-0.455819
H	5.16857	-0.628597	0.177251
C	5.19029	2.14648	0.47328
O	4.03263	2.10215	0.101869
O	5.94202	0.987369	0.591269
H	5.73188	3.0613	0.739882
H	6.86213	1.11878	0.896398
