15
  This energy is -0.0022909 and Call times are: 18114
C	0.255287	-0.255721	0.22344
O	-0.852898	-0.36181	0.719341
O	0.49903	0.56921	-0.851802
H	1.14232	-0.798568	0.583151
H	1.43415	0.551803	-1.14137
C	4.08038	-0.51151	-1.62951
O	3.84773	-0.882543	-2.7731
O	4.86053	0.577515	-1.35328
H	3.6868	-1.01588	-0.735492
H	4.95396	0.749299	-0.38592
C	4.50232	0.241625	2.32101
O	3.83271	-0.698935	1.93754
O	5.13644	1.07712	1.41414
H	4.66569	0.512457	3.37041
H	5.65247	1.8065	1.8125
