15
  This energy is 0.000825299 and Call times are: 10530
C	-0.411329	-0.101638	0.0311251
O	-0.355493	0.876982	-0.693051
O	0.716486	-0.671107	0.578672
H	-1.34888	-0.607556	0.306717
H	0.517284	-1.44964	1.13796
C	9.53762	1.29458	-1.15727
O	9.50366	2.20088	-1.9801
O	8.7379	1.2773	-0.0477453
H	10.2064	0.425794	-1.23798
H	8.8814	0.481758	0.518431
C	10.0825	-1.94229	1.20444
O	10.7308	-1.80325	0.184424
O	9.1423	-0.995535	1.58169
H	10.17	-2.78783	1.89632
H	8.66902	-1.19003	2.41546
