15
  This energy is -0.0050676 and Call times are: 3162
C	0.214795	-0.045191	-0.363746
O	0.84301	-0.65795	0.4819
O	-0.952025	0.622769	-0.0663753
H	0.517523	0.0277262	-1.41918
H	-1.34491	1.06871	-0.844438
C	4.02654	0.071406	-0.918108
O	2.9937	0.113504	-1.57465
O	4.18113	0.756447	0.255656
H	4.90941	-0.514129	-1.21181
H	5.0682	0.621558	0.666682
C	7.64492	-0.44063	0.813067
O	7.37599	-0.994633	-0.23614
O	6.71868	0.378879	1.44
H	8.59939	-0.527386	1.34482
H	7.02154	0.781943	2.27833
