15
  This energy is 0.00126038 and Call times are: 12468
C	0.00795266	-0.194517	-0.377612
O	0.0457049	1.00143	-0.608962
O	-0.0479882	-0.689289	0.906188
H	0.0150407	-0.970328	-1.15798
H	-0.0734939	-1.66756	0.936941
C	5.86887	0.740484	1.39149
O	5.34962	1.27295	2.36434
O	6.53395	-0.451994	1.47252
H	5.84584	1.1699	0.379734
H	6.89604	-0.751118	0.604509
C	7.37827	-0.536338	-2.13602
O	6.76307	0.511037	-2.068
O	7.57677	-1.31672	-1.00722
H	7.81746	-0.950848	-3.05066
H	8.08196	-2.14107	-1.15626
