15
  This energy is -0.00120933 and Call times are: 12215
C	0.170834	-0.22938	0.314152
O	1.00442	-0.193112	-0.574139
O	-1.05074	0.395042	0.196168
H	0.316678	-0.753669	1.27058
H	-1.61565	0.280074	0.987535
C	7.38956	-1.46558	0.282591
O	8.00571	-2.50361	0.488593
O	7.93465	-0.407267	-0.391017
H	6.35627	-1.29604	0.61745
H	7.31451	0.355686	-0.476773
C	4.89472	1.6939	-0.0986249
O	4.53441	0.686057	0.479745
O	6.16791	1.78381	-0.640358
H	4.28116	2.59038	-0.244055
H	6.37014	2.63053	-1.08663
