15
  This energy is -0.00164555 and Call times are: 12425
C	0.199134	0.371864	0.0505288
O	-0.248639	0.073223	1.14395
O	0.0229935	-0.429591	-1.05524
H	0.772621	1.29	-0.147055
H	0.437469	-0.061912	-1.86247
C	5.03234	-1.59788	0.528179
O	5.32654	-2.72916	0.893174
O	5.72077	-0.48954	0.938721
H	4.19861	-1.37729	-0.153585
H	5.364	0.348492	0.558671
C	3.61416	1.86898	-0.995476
O	3.09264	0.807498	-1.2807
O	4.70597	1.91596	-0.142061
H	3.29122	2.84905	-1.36487
H	5.05953	2.81162	0.0304998
