15
  This energy is 0.000974169 and Call times are: 7091
C	-0.41801	0.0405814	-0.0641172
O	0.0486743	-0.37672	-1.10973
O	0.367756	0.291307	1.03851
H	-1.48732	0.250133	0.089431
H	-0.144558	0.62224	1.80442
C	7.71147	-0.595238	0.670143
O	6.6586	-1.01906	1.12994
O	8.64651	0.0423091	1.43835
H	7.99347	-0.689315	-0.388253
H	9.44039	0.324301	0.924278
C	10.9885	0.586888	-1.38299
O	10.0796	0.00734579	-1.94696
O	10.9231	0.856011	-0.0243663
H	11.9072	0.93883	-1.8661
H	11.6986	1.32527	0.343531
