15
  This energy is -0.012922 and Call times are: 2629
C	0.0824369	0.345446	-0.233156
O	-1.12957	0.217877	-0.228911
O	0.912006	-0.530805	0.430221
H	0.61167	1.15576	-0.756805
H	1.85963	-0.302528	0.338019
C	4.57762	1.30631	1.06501
O	4.293	2.23129	1.81534
O	3.65889	0.377308	0.660327
H	5.5851	1.14406	0.656053
H	4.04016	-0.304467	0.0571382
C	6.08281	-1.51672	-1.40819
O	6.79391	-0.630041	-0.974336
O	4.74077	-1.58101	-1.06562
H	6.41271	-2.31661	-2.08097
H	4.24686	-2.32712	-1.46102
