15
  This energy is -0.00953749 and Call times are: 20169
C	0.413771	-0.0803708	-0.0531463
O	0.045434	0.494618	-1.06258
O	-0.44632	-0.355869	0.986283
H	1.44562	-0.423903	0.114701
H	-0.00996589	-0.821186	1.72904
C	4.032	-1.17865	0.515443
O	3.2159	-2.0191	0.872085
O	3.91292	0.145683	0.836177
H	4.92137	-1.41296	-0.0868083
H	4.6485	0.696915	0.476867
C	7.01783	1.13234	-0.932331
O	7.00263	-0.0654518	-1.14482
O	6.01305	1.73358	-0.189696
H	7.78856	1.82564	-1.28811
H	6.1073	2.69986	-0.0697293
