15
  This energy is -0.00594618 and Call times are: 6965
C	-0.0769171	0.390529	-0.148531
O	1.12474	0.329708	0.0453119
O	-0.91318	-0.67339	0.106046
H	-0.59084	1.28289	-0.53645
H	-1.85088	-0.478358	-0.0971688
C	6.32792	0.35004	1.35645
O	7.05992	0.585628	2.30947
O	5.24331	1.12577	1.05186
H	6.47728	-0.496003	0.670538
H	4.75357	0.808141	0.256066
C	4.27836	-0.904261	-1.89592
O	5.26551	-1.50519	-1.51578
O	3.83243	0.223754	-1.22413
H	3.66961	-1.17849	-2.76512
H	3.03208	0.641661	-1.60066
