15
  This energy is 0.000107282 and Call times are: 9795
C	-0.175972	0.30181	0.241734
O	0.970962	0.175939	0.634091
O	-0.680715	-0.451082	-0.794828
H	-0.896298	1.01386	0.671866
H	-1.61486	-0.240744	-0.999146
C	15.9954	-1.54443	-0.685654
O	15.6969	-2.6303	-1.16665
O	17.2915	-1.12526	-0.562163
H	15.2557	-0.820232	-0.315429
H	17.3697	-0.228886	-0.15666
C	16.3798	2.12343	0.972915
O	15.2799	1.63131	0.805365
O	17.5269	1.43959	0.599936
H	16.5687	3.10885	1.41403
H	18.3661	1.91198	0.772071
