15
  This energy is -0.00546635 and Call times are: 142
C	0.285907	-0.118974	0.290849
O	-0.511346	-1.03633	0.20086
O	0.168709	1.02785	-0.462225
H	1.15317	-0.124804	0.968144
H	0.880479	1.67588	-0.283188
C	4.54559	-0.419108	1.68538
O	4.521	-0.714715	2.87348
O	3.40787	-0.248861	0.945444
H	5.47393	-0.266589	1.1166
H	3.5915	-0.0125166	0.00499421
C	5.23484	0.548943	-2.17981
O	6.16076	0.369398	-1.41136
O	3.92239	0.426064	-1.74976
H	5.33693	0.81307	-3.23863
H	3.24405	0.588193	-2.43572
