15
  This energy is 5.4039e-05 and Call times are: 24075
C	0.333142	0.161628	-0.208286
O	-0.226948	-0.58757	-0.989469
O	-0.127688	0.357775	1.07438
H	1.23883	0.736755	-0.452948
H	0.422842	0.985786	1.58538
C	27.6127	-0.746862	-0.416019
O	28.672	-1.28454	-0.713144
O	27.5496	0.512272	0.114554
H	26.6313	-1.22417	-0.548434
H	26.6261	0.806463	0.300229
C	23.8514	0.513536	0.368826
O	24.0491	-0.589038	-0.105864
O	24.9095	1.36373	0.65209
H	22.8659	0.928317	0.609828
H	24.6563	2.2292	1.03136
