15
  This energy is -0.0020236 and Call times are: 19545
C	0.304819	-0.295373	0.0181833
O	-0.72621	-0.885333	-0.25416
O	0.339015	1.06837	0.205566
H	1.28091	-0.789527	0.136342
H	1.23472	1.40158	0.418376
C	3.70843	-0.140949	-1.62767
O	3.29564	-0.253408	-2.77507
O	3.63261	1.03299	-0.929791
H	4.17068	-0.964608	-1.06509
H	4.00646	0.96474	-0.0189633
C	5.228	-0.358139	2.11341
O	5.23267	-1.33265	1.38512
O	4.7024	0.849198	1.67907
H	5.61924	-0.334603	3.13696
H	4.74096	1.5772	2.33137
