15
  This energy is -0.00533478 and Call times are: 6881
C	-0.303704	0.161028	0.249648
O	-0.2729	0.862808	-0.746245
O	0.538178	-0.916622	0.410813
H	-0.992981	0.322367	1.09213
H	0.398978	-1.38564	1.2589
C	4.88613	-1.54021	0.550736
O	5.30366	-2.61977	0.95047
O	4.28827	-1.38846	-0.670098
H	4.9548	-0.609582	1.13193
H	4.00551	-0.459789	-0.848009
C	3.70721	2.24691	-0.236483
O	4.25289	1.9739	0.816026
O	3.47662	1.2676	-1.19061
H	3.35886	3.24519	-0.525237
H	3.03286	1.57823	-2.00521
