15
  This energy is -0.0042557 and Call times are: 6060
C	-0.228847	0.227112	0.276658
O	-0.898698	-0.753738	0.00374975
O	1.01478	0.439533	-0.275012
H	-0.551227	1.01482	0.974148
H	1.43378	1.26765	0.0368713
C	3.91945	-1.34364	-0.936322
O	3.49877	-2.28359	-1.59897
O	5.12388	-1.37993	-0.289073
H	3.37168	-0.399489	-0.80555
H	5.32288	-0.547176	0.201798
C	4.78955	2.04221	1.09611
O	3.74783	1.94225	0.475703
O	5.70263	0.999038	1.12158
H	5.09878	2.92296	1.67052
H	6.51144	1.16822	1.6452
