15
  This energy is -0.00150437 and Call times are: 10866
C	0.158149	-0.382824	0.0944743
O	0.0125362	-0.362848	-1.11534
O	-0.166344	0.694956	0.887674
H	0.55391	-1.24631	0.650057
H	0.00408362	0.533739	1.83824
C	4.06243	-1.5053	-0.227273
O	3.4672	-2.56528	-0.374635
O	4.85116	-0.962	-1.20381
H	4.01508	-0.904983	0.692483
H	5.26255	-0.106062	-0.935178
C	5.77857	2.00417	0.816904
O	5.0519	1.41426	1.59411
O	6.03587	1.48825	-0.444122
H	6.28014	2.95675	1.0226
H	6.63076	2.02991	-1.00062
