15
  This energy is 0.000349642 and Call times are: 25043
C	0.091939	0.414289	-0.0200674
O	1.15893	-0.173852	-0.04946
O	-1.10908	-0.254061	0.0631876
H	-0.00534458	1.50978	-0.0566776
H	-1.88053	0.348643	0.0777504
C	13.8284	-0.459259	0.581674
O	12.7194	-0.770455	0.997229
O	14.6243	-1.32749	-0.113839
H	14.2758	0.533942	0.729887
H	15.4871	-0.929807	-0.380945
C	17.3811	1.11395	-0.538618
O	16.5779	1.78029	0.0865672
O	17.0986	-0.199445	-0.881715
H	18.3623	1.46502	-0.87834
H	17.8021	-0.657737	-1.38373
