15
  This energy is -0.00210339 and Call times are: 5914
C	-0.184265	-0.143022	-0.35508
O	0.879923	-0.729726	-0.262732
O	-0.592542	0.781948	0.579698
H	-0.899651	-0.296724	-1.17697
H	-1.4673	1.17086	0.374364
C	2.93292	1.40593	0.539112
O	2.32045	2.39107	0.931494
O	3.39161	1.28711	-0.744007
H	3.16473	0.541082	1.17698
H	3.86578	0.436968	-0.906632
C	4.88373	-2.06054	-0.188731
O	4.42482	-1.82738	0.913594
O	4.74915	-1.14473	-1.22108
H	5.42392	-2.97294	-0.466246
H	5.14895	-1.41643	-2.07156
