15
  This energy is 0.000371762 and Call times are: 3414
C	-0.2775	-0.260162	-0.189208
O	-0.87098	0.785555	0.00954909
O	1.0382	-0.435043	0.177434
H	-0.730608	-1.14036	-0.66967
H	1.38089	-1.32481	-0.0450206
C	14.2222	0.931143	0.635523
O	15.1577	1.5767	1.0913
O	13.3454	1.44976	-0.277216
H	14.0083	-0.109741	0.917243
H	12.6469	0.807505	-0.548759
C	11.334	-1.65506	-0.514174
O	12.1795	-1.98969	0.294035
O	11.3399	-0.380459	-1.06
H	10.5207	-2.29427	-0.876407
H	10.623	-0.200117	-1.70069
