15
  This energy is -0.00333756 and Call times are: 3120
C	0.356732	0.0509759	0.22502
O	0.266711	-1.1422	-0.00622563
O	-0.584818	0.954009	-0.215528
H	1.18166	0.504362	0.794962
H	-0.380616	1.87539	0.04516
C	3.62106	0.888776	-0.916129
O	2.78338	1.50345	-1.56423
O	4.7046	1.49922	-0.346733
H	3.57547	-0.19503	-0.73764
H	5.28754	0.871259	0.143033
C	6.04971	-1.63576	1.10383
O	5.04887	-2.04949	0.549561
O	6.38176	-0.290367	1.05644
H	6.75728	-2.25262	1.66963
H	7.20293	-0.0486979	1.52998
