15
  This energy is -0.00135468 and Call times are: 20463
C	-0.107554	0.390483	-0.128239
O	-1.08256	-0.0602616	0.447472
O	1.05728	-0.330535	-0.267411
H	-0.0714079	1.39358	-0.579237
H	1.75324	0.159223	-0.751544
C	8.6552	-0.1716	-1.50863
O	8.06913	-0.301793	-2.57594
O	8.23775	0.700575	-0.541189
H	9.55773	-0.738114	-1.23833
H	8.81288	0.690737	0.260774
C	10.9756	-0.165407	1.80307
O	11.2356	-0.896022	0.865665
O	9.87902	0.68197	1.75886
H	11.5525	-0.104198	2.73303
H	9.74754	1.23243	2.55678
