15
  This energy is 0.00180008 and Call times are: 10194
C	-0.25727	0.238594	0.239532
O	0.450902	-0.382082	1.01316
O	-0.143699	0.101545	-1.12589
H	-1.03504	0.949647	0.556355
H	-0.777207	0.66178	-1.61926
C	6.05146	-1.5919	-0.602882
O	5.81413	-2.7115	-1.03848
O	5.47596	-1.10956	0.540378
H	6.74002	-0.88508	-1.08749
H	5.7671	-0.192782	0.761261
C	7.20497	2.16412	0.352934
O	7.64254	1.61548	-0.640853
O	6.30117	1.51591	1.18092
H	7.46654	3.17687	0.680343
H	6.00359	2.03327	1.95601
