15
  This energy is -0.010022 and Call times are: 1288
C	0.093776	-0.0216573	0.413796
O	-0.990339	0.529883	0.338003
O	0.778477	-0.444534	-0.703535
H	0.612065	-0.226961	1.36255
H	1.63376	-0.869709	-0.488305
C	6.95752	-0.41086	1.12648
O	7.83467	-0.707539	1.92783
O	7.19273	0.383749	0.0382786
H	5.9164	-0.753598	1.21115
H	6.38717	0.531478	-0.512423
C	3.69099	0.23277	-1.16861
O	3.62	-0.457495	-0.169321
O	4.89198	0.814989	-1.54442
H	2.85495	0.454966	-1.84162
H	4.85491	1.35273	-2.36078
