15
  This energy is -0.00268726 and Call times are: 188
C	0.285187	-0.300632	0.0936969
O	-0.66536	-0.876118	-0.406824
O	0.304805	1.06543	0.265604
H	1.19441	-0.810686	0.445921
H	1.13218	1.3857	0.679716
C	4.56194	1.11653	1.20694
O	4.95914	1.91315	2.04789
O	4.25218	-0.180771	1.5102
H	4.42139	1.37202	0.146967
H	3.94627	-0.697228	0.726798
C	3.30365	-1.05185	-1.96587
O	3.61118	0.117845	-2.09745
O	3.37711	-1.66928	-0.726529
H	2.95428	-1.70611	-2.77282
H	3.11053	-2.61044	-0.715357
