15
  This energy is 0.000240504 and Call times are: 14353
C	0.219708	0.126186	-0.341022
O	1.00173	0.141457	0.593566
O	-1.09638	-0.248284	-0.186856
H	0.489724	0.404596	-1.37082
H	-1.60365	-0.211661	-1.02348
C	12.3987	-0.659135	-0.143255
O	11.2687	-1.11725	-0.256294
O	13.1862	-0.903061	0.948223
H	12.8731	-0.019128	-0.900802
H	14.0689	-0.46535	0.892158
C	16.0301	1.11152	-0.31463
O	15.2311	1.24727	-1.22192
O	15.7156	0.347534	0.798907
H	17.0312	1.55677	-0.28477
H	16.4182	0.294319	1.47754
