15
  This energy is -0.00226674 and Call times are: 9333
C	-0.0854103	0.12502	0.396945
O	-0.679564	-0.926664	0.235117
O	0.68127	0.691816	-0.59654
H	-0.107903	0.7041	1.33239
H	1.09779	1.53451	-0.322709
C	7.98315	1.62931	0.361964
O	8.33679	2.7735	0.617599
O	6.67042	1.2855	0.190444
H	8.68229	0.78842	0.24938
H	6.54605	0.327286	-0.0105342
C	7.40994	-2.28783	-0.462225
O	8.53105	-1.84902	-0.28716
O	6.30284	-1.45676	-0.383396
H	7.17074	-3.33315	-0.688911
H	5.44249	-1.89587	-0.538163
