15
  This energy is -8.208e-06 and Call times are: 15445
C	-0.003851	-0.42303	0.0390039
O	-0.987669	-0.132023	-0.618767
O	0.872014	0.531532	0.505633
H	0.267172	-1.45365	0.313375
H	1.61422	0.150097	1.01774
C	15.6719	-0.922094	-1.44738
O	15.8503	-1.57553	-2.46756
O	16.684	-0.253903	-0.814785
H	14.6938	-0.81694	-0.956791
H	16.3828	0.226487	-0.00698683
C	14.4984	1.06481	1.87331
O	13.6963	0.429095	1.21561
O	15.8328	1.12342	1.50098
H	14.2614	1.62873	2.78277
H	16.4044	1.65739	2.08842
