15
  This energy is 0.000137255 and Call times are: 23151
C	-0.0750244	-0.40407	-0.107654
O	1.13256	-0.304276	0.0228552
O	-0.921914	0.664333	0.0856398
H	-0.586392	-1.33785	-0.385975
H	-1.86337	0.434674	-0.0541055
C	18.7415	-0.117703	-0.759178
O	17.6473	-0.21194	-1.30089
O	19.0514	0.898565	0.102269
H	19.5607	-0.833774	-0.916447
H	19.9703	0.83662	0.456769
C	22.4976	-0.316602	0.725419
O	22.0934	-1.1599	-0.0527466
O	21.6815	0.731974	1.12164
H	23.4986	-0.299055	1.17151
H	22.0901	1.36164	1.74898
