15
  This energy is -0.000721175 and Call times are: 21177
C	0.129171	0.255153	0.314169
O	0.872428	0.470096	-0.627433
O	-0.893791	-0.663843	0.243
H	0.207337	0.765785	1.28579
H	-1.40632	-0.728936	1.07468
C	5.77998	0.435157	1.15815
O	4.9106	0.740967	1.96452
O	7.10235	0.351517	1.49764
H	5.57542	0.203858	0.103055
H	7.67935	0.0938621	0.739545
C	8.19563	-0.615209	-1.90995
O	6.99546	-0.504997	-2.07589
O	8.76379	-0.383541	-0.666533
H	8.9161	-0.894894	-2.68712
H	9.73477	-0.495728	-0.626578
