15
  This energy is 0.00247362 and Call times are: 20841
C	0.127605	-0.400244	-0.0633395
O	-0.944799	-0.289993	-0.631706
O	0.70522	0.64802	0.617522
H	0.718367	-1.32842	-0.0437068
H	1.56456	0.411915	1.02298
C	10.1443	1.08197	-0.978166
O	10.821	1.83709	-1.66475
O	8.80343	1.26804	-0.782169
H	10.5511	0.198741	-0.465379
H	8.39853	0.576601	-0.205973
C	8.42876	-1.72077	1.37844
O	9.61733	-1.76872	1.12332
O	7.6344	-0.705263	0.868233
H	7.88968	-2.43916	2.00659
H	6.69155	-0.746871	1.12568
