15
  This energy is -0.00276678 and Call times are: 11454
C	0.359015	0.151609	0.169155
O	0.0540124	0.918313	-0.727721
O	-0.400084	-0.956164	0.473585
H	1.25017	0.273389	0.803123
H	-0.0325002	-1.47786	1.2161
C	7.39452	-1.44555	-0.944268
O	7.51794	-2.46537	-1.61084
O	8.46597	-0.765468	-0.433991
H	6.42264	-0.993089	-0.700786
H	8.20479	0.0356513	0.0798355
C	6.38625	1.8477	1.17464
O	5.52812	1.15161	0.665564
O	7.72913	1.52922	1.04107
H	6.19642	2.75321	1.76225
H	8.34756	2.14487	1.48322
