15
  This energy is -0.000166033 and Call times are: 10572
C	0.136606	-0.333467	0.225009
O	-0.17599	-0.766063	-0.870614
O	0.0205423	1.00093	0.544341
H	0.531559	-0.957711	1.04063
H	0.308972	1.20066	1.45841
C	6.82728	-1.57235	-0.307057
O	6.34401	-2.67844	-0.513402
O	7.89944	-1.09477	-1.00941
H	6.44562	-0.874885	0.452188
H	8.17198	-0.188919	-0.728012
C	7.99249	2.13711	0.803822
O	7.04982	1.59449	1.34882
O	8.68952	1.49775	-0.210047
H	8.3697	3.13737	1.04565
H	9.43184	2.00933	-0.589806
