15
  This energy is -0.000272716 and Call times are: 7385
C	0.00714365	0.397178	-0.15063
O	-1.07384	0.258464	0.394784
O	0.936967	-0.617292	-0.199103
H	0.330422	1.32658	-0.643187
H	1.75681	-0.360845	-0.66888
C	9.9839	1.41861	0.8604
O	9.61442	2.4104	1.47637
O	10.6643	1.49845	-0.32351
H	9.80288	0.389376	1.20168
H	10.893	0.614012	-0.697
C	10.9472	-2.17627	-0.720991
O	10.3407	-2.10459	0.33123
O	11.3222	-1.02869	-1.40287
H	11.2449	-3.10858	-1.21439
H	11.8058	-1.18233	-2.23926
