15
  This energy is -0.0164231 and Call times are: 13364
C	-0.271145	-0.323308	-0.0494257
O	0.391859	-0.274788	-1.07086
O	-0.07817	0.559092	0.989901
H	-1.06717	-1.06155	0.130167
H	-0.682831	0.399019	1.74314
C	6.57047	-0.295111	-0.68238
O	7.68264	-0.503402	-1.15063
O	5.46303	-0.119434	-1.46571
H	6.36777	-0.231922	0.396273
H	4.64159	0.038547	-0.941969
C	3.17183	0.359096	1.40882
O	4.22986	0.186532	1.98405
O	3.10555	0.335857	0.0240354
H	2.20962	0.54178	1.90083
H	2.21437	0.483923	-0.35128
