15
  This energy is -0.0047297 and Call times are: 12257
C	-0.330699	0.154459	0.217418
O	-0.541463	0.414214	-0.954483
O	0.800778	-0.515824	0.625523
H	-1.0118	0.426726	1.03771
H	0.833877	-0.653217	1.59435
C	7.09663	-0.880066	-0.0685894
O	8.14907	-1.5051	-0.104244
O	6.67694	-0.0856519	-1.09993
H	6.40539	-0.902904	0.785955
H	5.81004	0.351167	-0.921853
C	3.54883	0.939839	0.604436
O	4.03674	0.204427	1.44181
O	4.19646	1.17178	-0.599453
H	2.5947	1.46886	0.709568
H	3.73057	1.77613	-1.21156
