15
  This energy is 7.3379e-05 and Call times are: 17146
C	0.382561	-0.170455	0.0712939
O	-0.148526	-0.866492	-0.776483
O	-0.245163	0.929118	0.612563
H	1.39074	-0.354549	0.472027
H	0.302303	1.3902	1.28062
C	4.19376	0.440114	-1.56776
O	3.7548	0.743598	-2.66994
O	5.4461	0.79801	-1.15009
H	3.62572	-0.139913	-0.826502
H	5.65408	0.480209	-0.239171
C	5.10481	-0.836886	2.15932
O	4.02116	-1.08706	1.66616
O	6.05273	-0.108913	1.45641
H	5.42802	-1.14558	3.16008
H	6.89422	0.0441772	1.93122
