15
  This energy is -0.0130175 and Call times are: 3648
C	-0.242303	-0.00992173	0.348828
O	0.402198	-1.04426	0.351495
O	-0.115585	0.927724	-0.651587
H	-0.968441	0.261859	1.1297
H	-0.695251	1.7058	-0.520466
C	4.24017	1.71886	-0.0832602
O	4.42294	2.92839	-0.140065
O	2.99696	1.15685	-0.180495
H	5.05044	0.987803	0.0493533
H	3.01312	0.172099	-0.117014
C	4.24227	-2.31678	0.172509
O	5.28302	-1.6908	0.243771
O	3.0316	-1.66268	0.00223541
H	4.1579	-3.40791	0.232616
H	2.24772	-2.24608	-0.0444047
