15
  This energy is 0.00139972 and Call times are: 17862
C	-0.216497	-0.0349846	0.363862
O	-1.03097	-0.171835	-0.532329
O	1.11892	0.185414	0.110592
H	-0.470096	-0.0744752	1.43392
H	1.65195	0.275511	0.926906
C	11.137	-0.0405408	-0.0212222
O	12.3607	-0.080019	-0.0445534
O	10.4441	0.880708	0.715043
H	10.4961	-0.734409	-0.583761
H	9.46547	0.784525	0.630462
C	7.11958	-0.386464	-0.325954
O	7.85445	-1.14421	-0.930826
O	7.64081	0.612815	0.481711
H	6.02427	-0.413795	-0.355134
H	6.97591	1.17403	0.928838
