15
  This energy is 5.0581e-05 and Call times are: 23319
C	0.067837	0.419378	0.00331216
O	0.942115	-0.0622027	-0.695948
O	-0.894811	-0.357207	0.608535
H	-0.0286727	1.49598	0.2095
H	-1.52979	0.16689	1.13838
C	18.5459	0.934749	-0.558408
O	17.5838	1.58217	-0.95188
O	19.7769	1.49525	-0.355027
H	18.5042	-0.141253	-0.336927
H	20.4485	0.845594	-0.0372577
C	21.342	-1.68075	0.742726
O	20.2036	-2.04917	0.522602
O	21.7081	-0.356912	0.552976
H	22.1555	-2.32475	1.096
H	22.6431	-0.151901	0.754903
