15
  This energy is 0.000465235 and Call times are: 7133
C	0.0758397	-0.302254	0.288758
O	1.04481	-0.285462	-0.450207
O	-0.992943	0.547797	0.112163
H	-0.029654	-0.984298	1.14584
H	-1.69645	0.419738	0.780962
C	9.9909	-1.29902	-0.318683
O	9.20171	-2.20607	-0.551098
O	11.078	-1.45968	0.495802
H	9.89528	-0.28803	-0.739797
H	11.6181	-0.638429	0.584138
C	12.243	2.03529	0.084229
O	11.2463	2.04126	-0.613394
O	12.6305	0.886717	0.757422
H	12.9047	2.89412	0.244988
H	13.4437	0.974645	1.29403
