15
  This energy is 0.000178979 and Call times are: 21429
C	-0.0457709	0.377135	0.190171
O	0.142095	0.611146	-0.991011
O	-0.0799584	-0.907639	0.684395
H	-0.201732	1.15567	0.952047
H	-0.239433	-0.940586	1.64984
C	13.5485	1.12439	-1.01477
O	12.9585	1.92594	-1.72823
O	13.0369	-0.107538	-0.712237
H	14.5296	1.32312	-0.560497
H	13.6292	-0.637886	-0.127548
C	15.9317	-1.09559	1.38182
O	16.2683	0.0211777	1.03598
O	14.7243	-1.63371	0.963404
H	16.5185	-1.75883	2.02768
H	14.5368	-2.53647	1.2903
