15
  This energy is 0.000335314 and Call times are: 20673
C	0.0271636	-0.191592	-0.378213
O	0.760444	0.780198	-0.434523
O	-0.695162	-0.497679	0.753434
H	-0.120407	-0.897132	-1.20968
H	-1.23909	-1.30539	0.651642
C	5.30885	1.57116	-0.674671
O	5.51425	2.67811	-1.15638
O	6.22495	0.929408	0.112614
H	4.38062	1.00336	-0.831418
H	5.91355	0.0464839	0.42487
C	4.0894	-2.05539	0.634137
O	3.36933	-1.37828	-0.0751566
O	5.34414	-1.60089	1.01047
H	3.83388	-3.04525	1.0293
H	5.85271	-2.21143	1.58107
