15
  This energy is -0.00384454 and Call times are: 16473
C	0.177268	0.335642	0.190817
O	0.810332	0.152143	-0.834271
O	-0.886442	-0.463391	0.545974
H	0.39453	1.13989	0.90977
H	-1.29732	-0.196579	1.39368
C	6.79532	-0.775642	-0.68598
O	7.78373	-1.32425	-1.15678
O	5.79711	-0.260907	-1.4667
H	6.62632	-0.650577	0.393079
H	5.06896	0.148424	-0.941081
C	3.7826	0.918388	1.41298
O	4.73422	0.421938	1.98572
O	3.70792	0.915632	0.0284254
H	2.92853	1.39548	1.90718
H	2.90757	1.33649	-0.344802
