15
  This energy is -3.0793e-05 and Call times are: 7805
C	0.366146	0.116031	0.18156
O	0.557043	-0.988964	-0.295711
O	-0.849287	0.755411	0.0816336
H	1.13232	0.690124	0.724055
H	-0.853838	1.63497	0.511707
C	17.1775	-0.976941	1.40025
O	16.9453	-1.65437	2.3936
O	17.7514	-1.49648	0.2726
H	16.9474	0.0957158	1.32932
H	17.8738	-0.826242	-0.441429
C	17.7069	1.72441	-1.5619
O	17.2057	2.05522	-0.503836
O	18.1083	0.414902	-1.77767
H	17.8842	2.39361	-2.41162
H	18.5005	0.240599	-2.65678
