15
  This energy is -0.00118583 and Call times are: 15571
C	0.22191	-0.210586	0.294788
O	0.346106	-0.84096	-0.740804
O	-0.522198	0.946088	0.361696
H	0.683849	-0.503268	1.2497
H	-0.531383	1.34221	1.25702
C	8.05305	0.504813	1.29158
O	7.32594	0.866423	2.20816
O	7.59156	-0.222002	0.228719
H	9.12795	0.730429	1.24391
H	8.29728	-0.43653	-0.427001
C	10.9017	-0.407268	-1.42968
O	11.1782	0.236594	-0.435168
O	9.60483	-0.843628	-1.65401
H	11.6133	-0.694863	-2.21213
H	9.47549	-1.35385	-2.47859
