15
  This energy is 0.00131591 and Call times are: 20126
C	-0.261709	-0.326939	0.0714824
O	-0.728651	0.622496	0.676283
O	0.897571	-0.226118	-0.664707
H	-0.7154	-1.3294	0.0597403
H	1.15065	-1.06859	-1.09459
C	3.40035	1.53885	0.107755
O	2.83145	2.6214	0.171168
O	4.20644	1.07109	1.10892
H	3.31356	0.856506	-0.749829
H	4.59217	0.184556	0.910708
C	5.013	-2.09142	-0.648778
O	4.2758	-1.56008	-1.45766
O	5.31799	-1.46604	0.550579
H	5.48876	-3.07035	-0.777756
H	5.91795	-1.96693	1.13891
