15
  This energy is -7.0293e-05 and Call times are: 23613
C	-0.091036	-0.0829245	-0.406604
O	-0.769203	-0.847195	0.257645
O	0.765594	0.826188	0.172853
H	-0.102253	-0.0514913	-1.50651
H	1.24348	1.37225	-0.484449
C	17.3262	-1.17779	-1.27121
O	17.422	-1.99873	-2.17479
O	16.6716	-1.44489	-0.100293
H	17.7533	-0.166056	-1.3221
H	16.6808	-0.684312	0.528563
C	17.3281	1.90435	1.34647
O	17.8763	2.00911	0.265452
O	16.69	0.727264	1.70685
H	17.2839	2.69012	2.10928
H	16.2772	0.733777	2.5937
