15
  This energy is 0.000171502 and Call times are: 9627
C	-0.259886	0.175436	-0.286656
O	-0.463937	0.761047	0.762472
O	0.663078	-0.841317	-0.388731
H	-0.784221	0.402081	-1.22719
H	0.718125	-1.21703	-1.29118
C	12.5438	1.57448	0.688839
O	12.3501	2.68364	1.17031
O	13.7677	0.964374	0.714456
H	11.7595	0.979371	0.199627
H	13.7639	0.0746843	0.287297
C	12.5912	-2.07593	-1.05018
O	11.5647	-1.42464	-1.00437
O	13.7685	-1.58311	-0.508116
H	12.6872	-3.06983	-1.50209
H	14.543	-2.17491	-0.590782
