15
  This energy is 0.00052267 and Call times are: 12047
C	-0.422048	0.0137272	0.0466642
O	-0.203326	-0.785953	-0.846599
O	0.593248	0.677426	0.69839
H	-1.42992	0.271797	0.405137
H	0.266829	1.28715	1.39142
C	8.98227	-1.24985	-1.10652
O	9.32629	-2.13841	-1.87574
O	8.4552	-0.0643554	-1.53975
H	9.06625	-1.32695	-0.0130978
H	8.22706	0.548908	-0.800907
C	8.02929	1.30704	1.87777
O	8.507	0.215939	2.12549
O	7.80037	1.70009	0.567926
H	7.74472	2.05502	2.62665
H	7.41407	2.59282	0.464062
