15
  This energy is -0.00680319 and Call times are: 4651
C	-0.238967	0.344404	-0.0690736
O	-0.106349	0.257837	1.1393
O	0.328188	-0.56491	-0.933685
H	-0.812127	1.14073	-0.567331
H	0.13673	-0.368025	-1.87347
C	3.15834	-0.216314	-1.68985
O	2.9146	-0.355367	-2.88183
O	3.52553	-1.26092	-0.886803
H	3.1038	0.749454	-1.16746
H	3.68817	-0.989711	0.0480895
C	3.83655	0.833573	2.15588
O	3.50329	1.66769	1.33535
O	3.99161	-0.495662	1.79303
H	4.03852	1.03609	3.21394
H	4.26149	-1.09484	2.51769
