15
  This energy is 0.00138566 and Call times are: 7049
C	0.220704	-0.358437	0.0574729
O	0.711788	0.192935	-0.9121
O	-0.842475	0.182431	0.745355
H	0.575653	-1.31833	0.461857
H	-1.12945	-0.371163	1.50019
C	6.71281	0.502744	-1.55614
O	6.29205	0.845227	-2.65397
O	7.56455	1.27896	-0.819302
H	6.44548	-0.447781	-1.0728
H	7.81338	0.867115	0.0423792
C	7.7707	-1.13461	1.98672
O	7.01665	-1.72123	1.23348
O	8.28522	0.107949	1.64925
H	8.10486	-1.50872	2.96122
H	8.88249	0.50445	2.31486
