15
  This energy is -0.00260949 and Call times are: 3498
C	-0.101562	-0.315417	-0.265872
O	1.10108	-0.395096	-0.0854825
O	-0.868182	0.657101	0.336269
H	-0.670991	-0.999532	-0.912897
H	-1.81603	0.596946	0.0984307
C	10.3688	-0.363477	0.319305
O	11.5426	-0.618211	0.55782
O	9.87197	-0.306223	-0.953778
H	9.62079	-0.160928	1.09903
H	8.90934	-0.090494	-0.982465
C	6.4269	0.519653	0.13754
O	6.99469	0.437414	1.21036
O	7.11659	0.31302	-1.04745
H	5.36467	0.753965	0.0031664
H	6.57962	0.399396	-1.86058
