15
  This energy is -0.000337439 and Call times are: 21933
C	0.169582	-0.0854513	0.38004
O	0.907531	0.728251	-0.147753
O	-0.964337	-0.556259	-0.243367
H	0.339807	-0.508222	1.38164
H	-1.45743	-1.20396	0.300647
C	14.8661	-0.377858	-0.31684
O	16.0428	-0.630874	-0.542752
O	13.9553	-1.34402	0.0114957
H	14.4443	0.636535	-0.357853
H	13.0492	-0.983681	0.163978
C	11.1323	1.03885	0.318031
O	12.0387	1.79316	0.0189735
O	11.3569	-0.323191	0.448175
H	10.096	1.34242	0.506042
H	10.5706	-0.852089	0.69109
