15
  This energy is -0.00336573 and Call times are: 16809
C	-0.00500426	0.0139109	0.424584
O	-1.16376	0.130946	0.0656487
O	1.02794	-0.128773	-0.474711
H	0.313161	0.0118149	1.47799
H	1.90194	-0.211927	-0.0413349
C	4.97393	-0.0426873	1.72226
O	4.8012	-0.0701925	2.93428
O	6.20395	-0.21665	1.14983
H	4.16437	0.122387	0.997047
H	6.18081	-0.168035	0.164375
C	4.94288	0.148663	-2.31683
O	3.91428	0.286644	-1.682
O	6.14936	-0.0771202	-1.67185
H	5.01881	0.186724	-3.40957
H	6.92328	-0.175802	-2.26201
