15
  This energy is -0.00530153 and Call times are: 17188
C	0.292159	-0.253663	0.175466
O	-0.235801	0.346239	1.09559
O	-0.0796557	-0.0552366	-1.13543
H	1.09689	-0.992577	0.307093
H	0.430946	-0.605521	-1.76398
C	4.77247	-1.46638	-0.521678
O	5.31112	-2.49835	-0.901746
O	4.91301	-0.988676	0.752274
H	4.13622	-0.841185	-1.16425
H	4.41912	-0.148042	0.905358
C	2.76796	1.97741	0.166914
O	2.72776	1.44495	-0.926229
O	3.50092	1.41717	1.20203
H	2.25464	2.90837	0.433564
H	3.47567	1.91373	2.04451
