15
  This energy is -0.00694588 and Call times are: 11538
C	0.309456	0.26805	-0.113475
O	0.7917	-0.475314	0.723243
O	-0.99989	0.154572	-0.524334
H	0.865786	1.07998	-0.605579
H	-1.24631	0.818797	-1.20012
C	3.45696	1.4614	-0.92895
O	3.3531	2.48388	-1.59478
O	3.80026	1.47677	0.394987
H	3.28522	0.453519	-1.33298
H	3.84245	0.574519	0.792712
C	3.64851	-2.20941	0.756379
O	3.35345	-2.08082	-0.416859
O	3.9261	-1.10199	1.54324
H	3.72196	-3.16592	1.28644
H	4.15362	-1.30061	2.47371
