15
  This energy is -0.00019369 and Call times are: 25211
C	-0.318409	-0.173725	-0.221192
O	0.30108	-1.10086	0.270635
O	0.0480505	1.13836	-0.0206654
H	-1.20797	-0.299456	-0.856628
H	-0.541752	1.77288	-0.476868
C	11.1849	1.36494	1.05918
O	11.3155	2.33525	1.79472
O	11.1112	0.0848252	1.53539
H	11.1164	1.43764	-0.0356194
H	11.0064	-0.58705	0.820111
C	10.757	-1.43453	-1.8273
O	10.835	-0.254959	-2.11474
O	10.8131	-1.84732	-0.504792
H	10.6404	-2.25224	-2.54774
H	10.7425	-2.81343	-0.368292
