15
  This energy is -0.00947945 and Call times are: 8648
C	-0.0570558	0.334639	0.255444
O	1.09564	0.396292	-0.135387
O	-0.907105	-0.677031	-0.131867
H	-0.512557	1.06695	0.938921
H	-1.80021	-0.595912	0.261065
C	7.97042	0.200184	0.716111
O	9.07127	0.345855	1.23234
O	7.81235	-0.246531	-0.566994
H	7.02409	0.413434	1.23337
H	6.86576	-0.311512	-0.838617
C	4.1106	-0.0847307	-0.455416
O	4.39164	0.299955	0.66401
O	5.1055	-0.434255	-1.35574
H	3.09293	-0.189539	-0.848672
H	4.7868	-0.731966	-2.2314
