15
  This energy is -0.00445932 and Call times are: 3078
C	0.00962745	-0.388308	0.17209
O	-0.620251	-0.490724	-0.866183
O	0.535789	0.812753	0.592419
H	0.210243	-1.22929	0.85283
H	1.01559	0.741962	1.44294
C	4.08192	1.52884	-0.817195
O	3.98541	2.60707	-1.38964
O	5.24607	0.811255	-0.790304
H	3.2505	1.0493	-0.281139
H	5.16537	-0.0355658	-0.289895
C	3.81226	-1.95477	1.21839
O	2.84813	-1.21966	1.11769
O	5.02543	-1.61664	0.638335
H	3.82143	-2.91253	1.75121
H	5.7442	-2.2669	0.77066
