15
  This energy is -0.000788534 and Call times are: 11908
C	0.011784	0.319451	-0.279826
O	-0.404291	-0.651457	-0.887663
O	0.343827	0.258932	1.05515
H	0.156459	1.31124	-0.734064
H	0.662841	1.11477	1.40781
C	3.87071	-1.09873	1.29402
O	4.13008	-1.86291	2.21507
O	3.90064	-1.48869	-0.0166844
H	3.59436	-0.0446023	1.439
H	3.6677	-0.760549	-0.64085
C	2.92671	1.84494	-1.31281
O	2.93774	2.05791	-0.115062
O	3.23726	0.58945	-1.81269
H	2.68252	2.58619	-2.08236
H	3.20273	0.510617	-2.78715
