15
  This energy is -0.00478376 and Call times are: 11328
C	-0.202039	0.286937	0.239453
O	0.867463	0.786993	-0.0627995
O	-0.564131	-0.973635	-0.179971
H	-0.958763	0.787746	0.861919
H	-1.44969	-1.24211	0.1399
C	5.06564	-1.60149	-0.366576
O	5.46836	-2.73164	-0.611867
O	4.5084	-0.795312	-1.32075
H	5.11645	-1.14181	0.630764
H	4.23289	0.0846384	-0.968885
C	3.91834	2.0212	1.01605
O	4.4288	1.2066	1.76166
O	3.71787	1.72786	-0.324228
H	3.58101	3.02129	1.31154
H	3.30152	2.44186	-0.847515
