15
  This energy is -0.00825999 and Call times are: 4818
C	-0.167897	0.353311	0.165749
O	0.76324	0.0459545	0.889464
O	-0.506044	-0.387397	-0.944691
H	-0.808786	1.23235	0.331432
H	-1.27398	-0.0202165	-1.42849
C	4.67714	-0.625627	-1.59715
O	4.88472	-1.0603	-2.72301
O	3.5159	-0.86904	-0.916582
H	5.39809	-0.00886034	-1.04181
H	3.49866	-0.452049	-0.0222393
C	4.54679	1.06078	2.07585
O	5.5241	1.19935	1.36468
O	3.45517	0.322374	1.6449
H	4.43345	1.48409	3.08046
H	2.71543	0.264705	2.28242
