15
  This energy is 0.000181266 and Call times are: 21975
C	0.170395	-0.226863	-0.316211
O	-0.723186	-0.910952	0.151531
O	0.46838	1.0236	0.177356
H	0.806206	-0.54075	-1.15771
H	1.20888	1.45412	-0.2969
C	15.1506	-1.18706	1.26785
O	15.1887	-2.01368	2.17052
O	14.9457	-1.5335	-0.0394065
H	15.2763	-0.106728	1.42798
H	14.9409	-0.75646	-0.647858
C	15.1231	1.95695	-1.27504
O	15.2954	2.12588	-0.0826205
O	14.9324	0.684023	-1.79063
H	15.102	2.75344	-2.02767
H	14.8018	0.643944	-2.7593
