15
  This energy is -0.000427575 and Call times are: 3456
C	0.272111	0.0288393	-0.324983
O	-0.0600805	1.17007	-0.0557665
O	-0.214436	-1.0569	0.368202
H	0.976266	-0.230937	-1.12971
H	0.140526	-1.90856	0.0406577
C	10.0947	0.207976	-1.57429
O	9.5875	0.345877	-2.68033
O	11.2573	0.832261	-1.21456
H	9.66437	-0.422564	-0.783198
H	11.5381	0.62227	-0.292005
C	11.2976	-0.616577	2.1973
O	10.2778	-1.10722	1.75093
O	12.0715	0.236045	1.42477
H	11.6909	-0.789051	3.20571
H	12.873	0.582805	1.86557
