15
  This energy is -0.00428918 and Call times are: 4068
C	0.0287505	0.262802	0.332564
O	0.0955511	-0.86728	0.783893
O	-0.112233	0.504292	-1.01572
H	0.0741839	1.1729	0.949461
H	-0.151758	1.45883	-1.22995
C	3.97487	1.10155	-1.34353
O	3.94657	1.88452	-2.28466
O	4.86213	0.0627064	-1.27662
H	3.29713	1.16488	-0.480261
H	4.76096	-0.478421	-0.457496
C	3.60683	-1.15481	1.99192
O	2.8784	-0.19801	1.80754
O	4.5796	-1.49466	1.06413
H	3.57141	-1.81438	2.86657
H	5.11812	-2.27789	1.29551
