15
  This energy is 0.000100361 and Call times are: 23781
C	0.338483	-0.255766	-0.0224349
O	-0.619651	-0.926992	-0.364021
O	0.212279	1.06609	0.342034
H	1.36929	-0.638073	0.0243917
H	1.06573	1.47585	0.591683
C	17.7306	0.625951	-1.32715
O	18.3758	1.06482	-2.27091
O	18.2459	0.531417	-0.06365
H	16.6927	0.273729	-1.41251
H	17.6044	0.158882	0.587323
C	15.1474	-0.897026	1.38572
O	14.8154	-0.75894	0.223477
O	16.4179	-0.536224	1.80798
H	14.5088	-1.30079	2.1797
H	16.5963	-0.682407	2.75865
