15
  This energy is -0.00187224 and Call times are: 13132
C	0.127052	-0.309123	0.26228
O	-0.418505	0.527818	0.960237
O	0.243113	-0.160387	-1.10171
H	0.566817	-1.23969	0.651586
H	0.703999	-0.91102	-1.52919
C	5.75478	-0.924863	1.19712
O	6.34695	-1.57447	2.04972
O	6.27242	-0.70075	-0.0489636
H	4.76666	-0.470433	1.3574
H	5.67726	-0.161119	-0.622214
C	3.36045	1.28446	-1.19829
O	3.01922	1.01147	-0.0628939
O	4.57706	0.845464	-1.69801
H	2.77124	1.87611	-1.90826
H	4.7677	1.11229	-2.61966
