15
  This energy is -0.0105946 and Call times are: 17778
C	0.301699	0.262965	-0.142539
O	-0.719836	0.561929	-0.736115
O	0.336476	-0.752244	0.787091
H	1.2681	0.767219	-0.293206
H	1.22381	-0.877867	1.18137
C	4.07724	-0.531547	-0.646352
O	3.00975	-0.907055	-1.11437
O	4.22908	-0.208149	0.673973
H	4.99604	-0.42295	-1.24015
H	5.14727	0.076015	0.898056
C	7.82066	0.643565	0.332325
O	7.54938	0.327273	-0.810676
O	6.85423	0.609054	1.326
H	8.80753	0.972222	0.677801
H	7.16236	0.879825	2.2141
