15
  This energy is 0.000225727 and Call times are: 24496
C	0.379124	0.0252893	0.190042
O	0.449783	-0.908866	-0.58945
O	-0.767744	0.77412	0.33152
H	1.20856	0.347491	0.837447
H	-0.676453	1.4899	0.99328
C	3.95536	-1.6772	0.0917556
O	3.64911	-2.86166	0.144904
O	3.52007	-0.762345	1.01071
H	4.59959	-1.251	-0.690486
H	3.85194	0.150021	0.83329
C	5.28164	2.08249	-0.584697
O	5.59518	1.17169	-1.3278
O	4.46287	1.85405	0.51075
H	5.59785	3.12574	-0.698404
H	4.2635	2.64433	1.05177
