15
  This energy is 0.000366163 and Call times are: 12131
C	0.197473	0.122923	-0.355506
O	0.523339	-1.03627	-0.16752
O	-0.653998	0.790223	0.496419
H	0.547331	0.727863	-1.20554
H	-0.824948	1.71338	0.218632
C	8.39828	-0.223971	-0.291171
O	9.5946	-0.393958	-0.489931
O	7.73904	0.90612	-0.690161
H	7.75737	-0.956757	0.219542
H	6.7797	0.894697	-0.458709
C	4.46145	-0.211773	0.632432
O	5.16498	-1.15846	0.93062
O	4.99158	0.884702	-0.0303457
H	3.38946	-0.131388	0.846136
H	4.3525	1.5981	-0.229397
