15
  This energy is 0.00122015 and Call times are: 24580
C	-0.187179	0.040479	-0.379231
O	-0.464018	-1.07706	0.0204021
O	0.59174	0.907059	0.354523
H	-0.527905	0.448845	-1.34258
H	0.729565	1.76726	-0.0923079
C	7.1447	0.569731	1.46285
O	7.67011	0.958323	2.49848
O	6.75936	1.42466	0.467107
H	6.93936	-0.488261	1.24592
H	6.35203	0.960821	-0.302936
C	5.46537	-1.27389	-1.72035
O	5.85293	-1.91862	-0.764203
O	5.58968	0.106923	-1.74192
H	5.00095	-1.69642	-2.61872
H	5.25124	0.541444	-2.55039
