15
  This energy is 6.569e-05 and Call times are: 22731
C	-0.336476	-0.216158	-0.143351
O	0.243003	-0.95973	0.629016
O	0.11685	1.05597	-0.412159
H	-1.25515	-0.489151	-0.684111
H	-0.449605	1.53553	-1.05071
C	17.2119	0.919973	1.47139
O	17.14	1.55989	2.51298
O	18.0607	1.26159	0.454661
H	16.6072	0.0252781	1.26532
H	18.0034	0.649414	-0.317341
C	17.0204	-1.55227	-1.72285
O	16.3174	-1.74318	-0.748477
O	17.9032	-0.483727	-1.76196
H	17.0284	-2.17383	-2.62556
H	18.4275	-0.408489	-2.58443
