15
  This energy is -0.000252535 and Call times are: 15403
C	0.32695	0.140449	-0.232096
O	-0.284571	-0.639741	-0.941033
O	-0.0709523	0.424438	1.05519
H	1.23338	0.676926	-0.550644
H	0.516092	1.06779	1.50249
C	16.2553	0.843431	0.870947
O	15.3717	1.42589	1.48701
O	17.306	1.50121	0.292804
H	16.2806	-0.246632	0.730598
H	17.9345	0.894772	-0.166892
C	18.8649	-1.59048	-1.03118
O	17.8849	-2.04742	-0.47364
O	19.1106	-0.225869	-1.02819
H	19.6174	-2.18046	-1.56689
H	19.9212	0.0508343	-1.50084
