15
  This energy is -0.000132507 and Call times are: 25169
C	0.158556	-0.11332	-0.377504
O	-0.446102	-1.08391	0.0439126
O	0.236431	1.06413	0.332159
H	0.685713	-0.0913472	-1.34318
H	0.754016	1.75455	-0.130475
C	11.667	-0.641857	0.744072
O	10.6537	-1.08158	1.27276
O	12.5638	-1.44257	0.0916922
H	11.9409	0.422828	0.747832
H	13.3279	-0.941426	-0.281145
C	14.8233	1.35623	-0.804269
O	13.9508	1.94963	-0.1987
O	14.757	-0.0178106	-0.977993
H	15.7079	1.82276	-1.25271
H	15.5016	-0.409386	-1.4771
