15
  This energy is -0.00446497 and Call times are: 20084
C	-0.318953	0.167241	-0.225366
O	-0.756635	-0.85079	0.281873
O	0.978392	0.583651	-0.0264446
H	-0.909228	0.831362	-0.874537
H	1.1875	1.41702	-0.49589
C	4.12557	1.14246	-1.22016
O	3.77853	1.94794	-2.07477
O	5.38768	0.617345	-1.17279
H	3.46026	0.775527	-0.42563
H	5.51359	-0.0166707	-0.427001
C	4.70159	-1.46607	1.81556
O	3.62287	-0.925729	1.6591
O	5.7584	-1.20119	0.957907
H	4.93805	-2.18242	2.61068
H	6.58692	-1.68047	1.15994
