15
  This energy is 7.4415e-05 and Call times are: 22983
C	-0.325712	-0.269624	-0.0412957
O	-0.718693	0.806463	-0.457044
O	0.951677	-0.44413	0.442332
H	-0.943839	-1.17966	-0.0156505
H	1.12442	-1.36046	0.740841
C	21.1946	1.08341	-1.2652
O	21.5447	1.85697	-2.14757
O	20.8273	-0.208845	-1.52222
H	21.1456	1.35736	-0.201658
H	20.5717	-0.705931	-0.708832
C	20.1335	-1.00451	2.03124
O	20.4822	0.157699	2.11945
O	20.0913	-1.6407	0.799962
H	19.8316	-1.63743	2.8736
H	19.7993	-2.57403	0.824914
