15
  This energy is -0.000325407 and Call times are: 15697
C	0.149319	0.364654	0.158813
O	-1.04652	0.529634	-0.00849322
O	0.773315	-0.823727	-0.14851
H	0.823823	1.13485	0.562228
H	1.73425	-0.809255	0.0385694
C	10.5775	-1.07244	1.34888
O	10.4343	-1.82943	2.30074
O	9.5187	-0.542997	0.663638
H	11.5585	-0.756148	0.966681
H	9.79548	0.0482995	-0.0764921
C	11.6498	1.35875	-1.6993
O	12.4948	0.822074	-1.00801
O	10.3001	1.15011	-1.45936
H	11.8572	2.0291	-2.54127
H	9.69331	1.6218	-2.06454
