15
  This energy is 0.000249339 and Call times are: 25967
C	-0.330736	-0.148493	0.221481
O	0.342342	0.497837	1.00536
O	0.0238863	-0.291793	-1.10131
H	-1.26315	-0.664946	0.494942
H	-0.61113	-0.837037	-1.60932
C	3.40242	0.0717415	1.71038
O	3.18816	0.135215	2.91439
O	3.93429	-1.03883	1.11486
H	3.18827	0.892736	1.01132
H	4.04684	-0.936715	0.139705
C	3.88974	0.431502	-2.28774
O	3.42542	1.34729	-1.63518
O	4.26282	-0.756286	-1.67738
H	4.05322	0.449503	-3.37136
H	4.62603	-1.43614	-2.27975
