15
  This energy is -0.0114397 and Call times are: 1347
C	-0.108156	0.0148231	-0.410576
O	-1.02409	0.534789	0.202568
O	1.00647	-0.484676	0.225171
H	-0.0901492	-0.0997642	-1.50486
H	1.65755	-0.872067	-0.395016
C	5.68505	0.703969	-1.38103
O	6.25056	1.19735	-2.34868
O	4.32266	0.663497	-1.26627
H	6.21733	0.255695	-0.529973
H	4.01881	0.2346	-0.430953
C	4.37917	-1.0412	2.02499
O	5.57005	-0.940335	1.79755
O	3.44184	-0.560771	1.12323
H	3.94547	-1.49918	2.92133
H	2.50862	-0.685173	1.38894
