15
  This energy is -0.000239169 and Call times are: 23571
C	0.38967	0.0919014	0.142134
O	-0.330354	1.00561	0.505372
O	-0.0923056	-0.974266	-0.583853
H	1.46748	0.0381041	0.357366
H	0.600694	-1.62987	-0.804181
C	17.9273	-0.895273	0.57736
O	16.9683	-1.53634	0.988331
O	17.7926	0.322021	-0.0316923
H	18.9683	-1.23866	0.6613
H	18.656	0.713202	-0.306424
C	21.4337	0.757498	-0.573795
O	21.4115	-0.325147	-0.0192985
O	20.259	1.45016	-0.824407
H	22.3392	1.27177	-0.915712
H	20.373	2.3115	-1.27394
