15
  This energy is -0.00216958 and Call times are: 12089
C	0.23699	-0.106013	0.336285
O	-0.447045	-1.08147	0.0797326
O	0.160228	1.05481	-0.400369
H	0.962458	-0.0662847	1.16274
H	0.767744	1.75171	-0.078085
C	5.86147	-0.588502	1.54362
O	5.49158	-1.01306	2.63105
O	5.25697	0.469376	0.922032
H	6.70219	-1.016	0.978802
H	5.66889	0.692726	0.0534331
C	7.50529	0.372775	-2.02369
O	7.94822	-0.549716	-1.36573
O	6.42741	1.11599	-1.56721
H	7.89279	0.695773	-2.99672
H	6.13938	1.83753	-2.16168
