15
  This energy is -0.00419958 and Call times are: 2965
C	-0.0965061	0.36605	-0.192832
O	-0.294503	-0.513931	-1.01239
O	0.353672	0.0922694	1.07935
H	-0.256469	1.43641	-0.391958
H	0.466508	0.897166	1.62526
C	3.21711	0.809825	-0.981873
O	2.38196	1.36912	-1.68136
O	3.8594	1.44311	0.0463877
H	3.51982	-0.238212	-1.11811
H	4.50287	0.860486	0.515974
C	5.87005	-1.52799	0.979874
O	5.22992	-1.96818	0.0436311
O	5.70597	-0.215713	1.39651
H	6.60598	-2.09456	1.56183
H	6.26165	0.0510334	2.15615
