15
  This energy is -0.00706542 and Call times are: 2224
C	0.224529	0.239965	0.269247
O	-0.897314	0.159033	0.738465
O	0.568284	-0.375481	-0.913601
H	1.04652	0.80067	0.739181
H	1.50199	-0.22271	-1.16552
C	3.95816	0.967354	1.17245
O	3.37483	1.65856	1.998
O	3.48359	-0.248423	0.763104
H	4.90344	1.2607	0.693948
H	4.06448	-0.683628	0.0943796
C	6.29894	-0.866668	-1.5678
O	6.60591	0.22195	-1.11974
O	5.14065	-1.50435	-1.15032
H	6.87715	-1.42815	-2.31056
H	4.97429	-2.37516	-1.56382
