15
  This energy is 0.000195787 and Call times are: 4986
C	0.117731	-0.334477	0.233998
O	-0.101658	0.571198	1.01941
O	-0.0262639	-0.173621	-1.12595
H	0.443897	-1.34139	0.535072
H	0.184512	-0.985887	-1.63033
C	7.77569	0.831762	-1.50896
O	7.61222	1.42865	-2.56565
O	8.30078	-0.429856	-1.44974
H	7.51748	1.25339	-0.527064
H	8.37026	-0.775522	-0.527938
C	8.08299	-0.640102	2.24484
O	7.63183	0.472921	2.05065
O	8.50214	-1.43015	1.18526
H	8.199	-1.11024	3.2281
H	8.85055	-2.30931	1.4356
