15
  This energy is 0.0015345 and Call times are: 8955
C	-0.118089	0.347595	-0.21383
O	0.218007	0.726589	0.894614
O	-0.0756639	-0.98011	-0.576418
H	-0.47823	1.01873	-1.00804
H	-0.374796	-1.13392	-1.49591
C	6.02571	0.837558	1.40989
O	5.60832	1.423	2.40116
O	7.32938	0.915564	1.00336
H	5.39587	0.205467	0.767766
H	7.51128	0.388798	0.18883
C	6.83184	-1.30004	-1.92668
O	5.70944	-1.28322	-1.45762
O	7.86065	-0.587551	-1.32961
H	7.13117	-1.8523	-2.82484
H	8.72845	-0.659524	-1.7754
