15
  This energy is -5.5453e-05 and Call times are: 24369
C	-0.274986	-0.323716	0.00902875
O	0.117651	-0.177492	1.15345
O	0.166651	0.473962	-1.02283
H	-1.00276	-1.09064	-0.296044
H	-0.235098	0.239872	-1.88446
C	24.7912	-0.526008	0.898314
O	25.7748	-0.883597	1.53412
O	23.9583	-1.41131	0.2711
H	24.4955	0.525938	0.777752
H	23.2108	-0.970495	-0.198991
C	21.7085	1.22274	-1.04857
O	22.5244	1.89651	-0.448232
O	21.8155	-0.159324	-1.08001
H	20.8474	1.61846	-1.59931
H	21.1155	-0.618357	-1.58614
