15
  This energy is -0.00514627 and Call times are: 2713
C	-0.413282	-0.0931957	-0.0316715
O	0.0501469	-0.870222	0.784851
O	0.361818	0.856519	-0.658834
H	-1.47107	-0.0811517	-0.334737
H	-0.146231	1.4083	-1.28814
C	6.41956	0.81037	-1.53689
O	6.44703	1.38267	-2.61915
O	5.25451	0.393719	-0.953837
H	7.31893	0.584279	-0.946471
H	5.39624	-0.0510825	-0.0843033
C	6.93669	-1.01872	2.03227
O	7.89215	-0.599688	1.4065
O	5.64882	-0.879444	1.53774
H	6.992	-1.52429	3.00316
H	4.94346	-1.24583	2.10801
