15
  This energy is -0.00586866 and Call times are: 1597
C	0.158758	0.365156	-0.148148
O	-0.57725	-0.0651736	-1.01898
O	0.351522	-0.301341	1.04126
H	0.723704	1.30569	-0.232571
H	0.968472	0.163317	1.64298
C	5.06563	0.196821	1.49367
O	5.68119	0.347184	2.54155
O	4.25765	-0.882449	1.26291
H	5.10847	0.908316	0.65671
H	3.83051	-0.860962	0.37346
C	3.28821	0.227998	-2.13836
O	4.03289	1.13049	-1.80512
O	3.03118	-0.831956	-1.2822
H	2.76938	0.162398	-3.10159
H	2.42094	-1.51086	-1.63388
