15
  This energy is -0.00884718 and Call times are: 3942
C	-0.194594	0.0677977	-0.37152
O	0.800638	-0.589292	-0.6225
O	-0.512699	0.451443	0.912106
H	-0.913525	0.406494	-1.13266
H	-1.33927	0.974021	0.960022
C	6.05208	0.803147	1.02312
O	6.86648	1.35727	1.75063
O	5.34177	1.47558	0.0669811
H	5.82365	-0.27097	1.07474
H	4.72625	0.891966	-0.437557
C	3.50943	-1.53693	-1.07708
O	4.20225	-2.00977	-0.195889
O	3.57448	-0.185934	-1.3823
H	2.79761	-2.10142	-1.69023
H	2.98216	0.105349	-2.10431
