15
  This energy is 0.000610434 and Call times are: 22227
C	-0.160517	0.19155	0.34356
O	0.207768	-0.911345	0.708574
O	-0.0249919	0.613008	-0.96031
H	-0.62488	0.934263	1.00963
H	-0.36465	1.5198	-1.1051
C	10.3791	-1.7283	-0.132198
O	10.2991	-2.9476	-0.212704
O	10.0127	-0.897396	-1.15506
H	10.7482	-1.20145	0.759275
H	10.1349	0.0576695	-0.938416
C	10.8601	2.20033	0.696303
O	11.148	1.35336	1.52081
O	10.3607	1.8398	-0.545976
H	10.9605	3.2819	0.84255
H	10.1571	2.58668	-1.14404
