15
  This energy is -0.000569975 and Call times are: 6755
C	-0.283116	-0.299151	-0.104137
O	0.144464	-0.602211	0.996125
O	0.151066	0.823194	-0.773388
H	-1.03905	-0.883323	-0.65023
H	-0.280201	0.938098	-1.64483
C	11.6895	1.35089	0.0850234
O	12.4679	2.29424	0.145816
O	10.3346	1.51872	0.00190578
H	12.0085	0.298862	0.0919006
H	9.84223	0.664397	-0.0401469
C	9.61685	-2.11699	-0.0879109
O	10.831	-2.12388	-0.0119521
O	8.91494	-0.921555	-0.116854
H	8.98364	-3.01015	-0.138671
H	7.94291	-1.0125	-0.178917
