15
  This energy is -0.000339348 and Call times are: 7343
C	0.039249	0.394528	0.152636
O	0.0884433	0.491784	-1.06119
O	-0.116296	-0.819794	0.78295
H	0.113213	1.25092	0.839683
H	-0.138498	-0.742728	1.75874
C	12.4272	1.51846	0.826748
O	12.3191	2.58942	1.41065
O	11.3443	0.80109	0.398162
H	13.3932	1.04583	0.598849
H	11.5937	-0.0393595	-0.0551509
C	13.3866	-1.93923	-1.03759
O	14.2562	-1.2053	-0.607213
O	12.0471	-1.60861	-0.899447
H	13.5629	-2.89022	-1.55318
H	11.4187	-2.25727	-1.27536
