15
  This energy is -0.00869129 and Call times are: 12510
C	0.316344	0.00110421	-0.283576
O	0.83245	0.190251	0.80413
O	-1.04248	-0.168329	-0.428376
H	0.878484	-0.0501863	-1.22818
H	-1.31186	-0.310881	-1.35881
C	7.61718	-0.429829	-0.729732
O	8.68226	-0.745837	-1.24484
O	7.34338	0.849498	-0.330664
H	6.79769	-1.13905	-0.545348
H	6.44464	0.945604	0.065631
C	3.94698	0.0260037	0.905416
O	4.31751	-1.06253	0.508062
O	4.77298	1.13539	0.807618
H	2.97088	0.23229	1.35924
H	4.39212	1.96797	1.1522
