15
  This energy is -0.00696962 and Call times are: 19714
C	-0.146411	-0.313303	-0.24677
O	0.770023	0.204767	-0.860772
O	-0.533108	0.127703	0.999043
H	-0.734978	-1.16259	-0.625185
H	-1.28173	-0.383488	1.36898
C	4.42072	-1.65634	0.0670663
O	4.79463	-2.82189	0.102575
O	3.59704	-1.1182	1.01726
H	4.71136	-0.949118	-0.722831
H	3.38547	-0.168683	0.85091
C	3.51582	2.23422	-0.562682
O	4.24049	1.63388	-1.33375
O	2.98307	1.59996	0.549282
H	3.22349	3.28586	-0.662071
H	2.41218	2.16003	1.11265
