15
  This energy is -0.00663038 and Call times are: 19100
C	-0.191246	-0.355553	-0.132277
O	0.970104	-0.653682	0.0859673
O	-0.66496	0.923836	0.0543429
H	-0.949894	-1.06751	-0.49071
H	-1.61583	1.01349	-0.16112
C	5.83008	-0.426866	-1.40423
O	6.49137	-0.715236	-2.39373
O	4.93035	-1.29067	-0.842758
H	5.90132	0.540586	-0.886991
H	4.47658	-0.91396	-0.0514209
C	3.93597	1.06286	1.84307
O	4.76239	1.72851	1.24808
O	3.62365	-0.221046	1.42281
H	3.3804	1.39247	2.7285
H	2.94868	-0.681167	1.96104
