15
  This energy is -0.000162569 and Call times are: 7973
C	-0.0183137	0.368134	-0.211265
O	0.255083	0.650022	0.942442
O	-0.206249	-0.932974	-0.620982
H	-0.137064	1.1129	-1.0126
H	-0.419905	-1.00555	-1.57371
C	17.6428	-0.58195	-1.5446
O	18.0163	-1.00241	-2.63238
O	18.1972	0.518581	-0.950927
H	16.8385	-1.04734	-0.95724
H	17.7892	0.732238	-0.0780417
C	16.0126	0.342169	2.03872
O	15.6111	-0.614612	1.40352
O	17.0376	1.13798	1.5503
H	15.6252	0.658389	3.01403
H	17.2948	1.88432	2.12808
