15
  This energy is -0.000700251 and Call times are: 22437
C	0.147247	0.149134	-0.369551
O	0.801085	-0.848423	-0.119308
O	-0.848828	0.599353	0.467831
H	0.291334	0.766862	-1.26875
H	-1.28686	1.41034	0.137623
C	12.9989	0.839764	-1.14721
O	13.7102	1.437	-1.94534
O	11.9519	0.0522174	-1.54011
H	13.1386	0.884221	-0.0576765
H	11.4751	-0.361692	-0.781581
C	11.0038	-0.882757	1.91945
O	11.9574	-0.157299	2.13022
O	10.5782	-1.13623	0.624393
H	10.4119	-1.38586	2.69259
H	9.80465	-1.73047	0.550648
