15
  This energy is -0.000123542 and Call times are: 11034
C	0.228401	0.289854	0.210494
O	-0.719846	0.885842	-0.269996
O	0.408474	-1.0634	0.0306111
H	1.00973	0.76993	0.818736
H	1.21244	-1.40327	0.474155
C	8.59741	-0.715537	-1.46424
O	8.18027	-1.23105	-2.49371
O	8.23354	0.543115	-1.07143
H	9.29285	-1.21404	-0.77401
H	8.65227	0.817578	-0.220922
C	10.2846	0.466424	2.01544
O	10.524	-0.632946	1.55266
O	9.42871	1.33986	1.36191
H	10.6999	0.860733	2.94997
H	9.29512	2.2007	1.80698
