15
  This energy is -0.00366135 and Call times are: 13500
C	-0.144961	-0.303687	0.259328
O	-0.376301	0.757	0.813106
O	0.473167	-0.367194	-0.969474
H	-0.404021	-1.28567	0.683001
H	0.592714	-1.28488	-1.2891
C	6.27625	-1.39613	0.54965
O	6.88352	-2.38814	0.932694
O	6.76375	-0.127954	0.707663
H	5.29737	-1.43822	0.051048
H	6.15992	0.564723	0.34764
C	3.84292	1.48733	-0.905134
O	3.52867	0.314523	-0.981626
O	5.04137	1.8635	-0.317946
H	3.24144	2.32614	-1.27381
H	5.21064	2.82684	-0.300706
