15
  This energy is -0.00534695 and Call times are: 16117
C	-0.180177	-0.276251	0.267791
O	-1.02199	-0.0196701	-0.575276
O	1.07536	0.288609	0.2427
H	-0.344618	-0.968191	1.10748
H	1.64292	-0.0107788	0.982192
C	7.54034	-0.580484	0.556328
O	8.62471	-0.981781	0.959671
O	7.00772	-0.975684	-0.639932
H	6.90779	0.124444	1.11447
H	6.12882	-0.566436	-0.824503
C	3.93785	1.06653	-0.256843
O	4.52241	1.33371	0.776106
O	4.49183	0.192088	-1.17935
H	2.96173	1.4692	-0.550689
H	3.95162	0.0364569	-1.97993
