15
  This energy is 0.000233256 and Call times are: 6251
C	-0.0129973	0.379632	0.190266
O	0.469156	-0.392058	1.00099
O	-0.399656	-0.0282046	-1.06681
H	-0.179174	1.44964	0.386153
H	-0.769083	0.700016	-1.60701
C	8.21912	-0.901331	-0.848792
O	9.08102	-1.5436	-1.43548
O	7.49763	0.0891404	-1.4565
H	7.95336	-1.06323	0.205593
H	6.84137	0.513259	-0.853611
C	5.51357	0.876629	1.57416
O	6.22164	-0.0212713	1.98949
O	5.6169	1.31182	0.261719
H	4.75854	1.4081	2.16471
H	5.00851	2.03741	0.016027
