15
  This energy is -0.00341634 and Call times are: 7007
C	0.00224265	0.0354085	-0.423358
O	-0.473698	-1.05868	-0.174952
O	0.414211	0.895876	0.569591
H	0.142555	0.425745	-1.4426
H	0.774837	1.73641	0.220234
C	6.53205	1.15693	0.631745
O	7.31939	1.98032	1.08084
O	6.94164	0.00557306	0.0173146
H	5.43976	1.27034	0.682836
H	6.19021	-0.555508	-0.290215
C	3.49527	-1.18379	-0.653127
O	3.26937	-0.129847	-0.0889778
O	4.79771	-1.60752	-0.869173
H	2.73107	-1.87301	-1.03029
H	4.88368	-2.4663	-1.32969
