15
  This energy is 9.152e-05 and Call times are: 3330
C	-0.0776508	-0.416062	-0.0367855
O	0.308169	-0.0428945	-1.13092
O	-0.194638	0.446338	1.03029
H	-0.361316	-1.45442	0.191798
H	-0.515923	0.00545775	1.84331
C	9.41526	-0.95008	-1.42024
O	9.64881	-1.62463	-2.41523
O	8.33712	-0.112667	-1.33503
H	10.0448	-0.958882	-0.519064
H	8.28482	0.36163	-0.471121
C	9.14879	1.02444	2.09859
O	10.0615	0.247086	1.89179
O	8.17903	1.2522	1.13408
H	9.00566	1.59674	3.02232
H	7.48413	1.89244	1.38742
