15
  This energy is -0.00169185 and Call times are: 9459
C	-0.387503	0.0740753	-0.157623
O	-0.0870515	-1.05423	-0.506769
O	0.457106	0.85399	0.600294
H	-1.3412	0.560781	-0.411569
H	0.0820936	1.73516	0.804051
C	5.0838	1.34809	-1.09008
O	4.99658	2.30581	-1.8482
O	5.55839	0.130446	-1.49383
H	4.79148	1.38339	-0.0308907
H	5.56795	-0.539164	-0.768873
C	5.14464	-1.43946	1.8387
O	4.74525	-0.31259	2.06395
O	5.58799	-1.79509	0.573974
H	5.1929	-2.2498	2.57512
H	5.89057	-2.72116	0.485515
