15
  This energy is -0.00677782 and Call times are: 16243
C	-0.246146	0.289117	0.190562
O	-0.987387	-0.388029	-0.500293
O	1.10973	0.0571519	0.252635
H	-0.586995	1.12943	0.813938
H	1.57609	0.679363	0.847587
C	5.59965	0.961703	1.13352
O	6.2327	1.62935	1.94164
O	5.28331	1.42251	-0.114877
H	5.23466	-0.0547375	1.33894
H	4.77139	0.769022	-0.648658
C	3.49835	-1.67303	-1.10134
O	3.84439	-1.9574	0.0297978
O	3.81542	-0.440218	-1.65108
H	2.92857	-2.32884	-1.76958
H	3.49656	-0.299074	-2.56507
