15
  This energy is -5.7366e-05 and Call times are: 23361
C	-0.215392	0.127123	-0.343418
O	-0.186368	1.08158	0.41383
O	0.375376	-1.07563	-0.0265013
H	-0.70628	0.140668	-1.32818
H	0.271222	-1.74859	-0.729983
C	16.9277	0.611651	-1.37263
O	16.3132	1.05531	-2.33447
O	17.2506	-0.712043	-1.25225
H	17.2695	1.23184	-0.531711
H	17.7459	-0.914065	-0.422856
C	18.9576	-0.278331	2.0096
O	18.6093	0.86418	1.77837
O	18.6673	-1.30187	1.1204
H	19.5091	-0.600911	2.90013
H	18.9859	-2.18712	1.38832
