15
  This energy is -0.000666929 and Call times are: 15529
C	-0.142034	-0.348866	-0.196492
O	-0.903284	0.551041	-0.506186
O	0.933548	-0.141769	0.637956
H	-0.243908	-1.38638	-0.548747
H	1.45477	-0.95517	0.797062
C	9.52025	-0.0216545	-0.443943
O	8.33906	-0.0279745	-0.766937
O	9.99843	-0.747035	0.612498
H	10.2904	0.561115	-0.969188
H	10.9702	-0.638478	0.746187
C	13.4986	0.384967	0.155422
O	12.945	0.976352	-0.75228
O	12.7799	-0.44167	1.00555
H	14.5691	0.441514	0.383949
H	13.3072	-0.875896	1.70586
