15
  This energy is -0.00524538 and Call times are: 13542
C	0.11416	0.377745	0.157374
O	1.05456	-0.0107829	-0.513406
O	-1.03915	-0.361519	0.296758
H	0.102654	1.33461	0.700677
H	-1.70643	0.0763466	0.863874
C	3.4667	0.701958	1.3535
O	2.88132	1.18505	2.31451
O	3.63342	1.37892	0.176716
H	3.9042	-0.306589	1.35313
H	4.12532	0.857408	-0.501583
C	5.47472	-1.38655	-1.46746
O	5.25802	-1.87272	-0.37349
O	5.03895	-0.106292	-1.77341
H	6.00989	-1.88514	-2.28373
H	5.25789	0.202031	-2.67562
