15
  This energy is 0.00049944 and Call times are: 18702
C	-0.131395	0.40371	-0.0156289
O	-0.258731	0.0480229	1.14304
O	0.356491	-0.438715	-0.989465
H	-0.389621	1.40942	-0.380004
H	0.402591	-0.0157631	-1.87128
C	7.16694	-0.58143	0.118964
O	6.01991	-0.999882	0.212742
O	7.52916	0.376823	-0.787373
H	7.99596	-0.935675	0.748095
H	8.48725	0.609016	-0.740632
C	11.0845	0.410547	0.261307
O	10.6303	-0.429698	1.01479
O	10.2713	1.04762	-0.663503
H	12.1312	0.734747	0.236513
H	10.722	1.70807	-1.22707
