15
  This energy is -0.0103768 and Call times are: 11866
C	-0.410088	0.0989419	-0.0502905
O	-0.261402	-0.148163	1.1338
O	0.632554	0.033071	-0.947301
H	-1.37125	0.390884	-0.499559
H	0.36364	0.257619	-1.86156
C	5.11795	0.157486	-1.65107
O	5.49517	0.263047	-2.8113
O	3.88211	0.573426	-1.23806
H	5.73301	-0.275936	-0.849561
H	3.72587	0.420942	-0.275581
C	4.42005	-0.439586	2.28699
O	5.48146	-0.765061	1.78944
O	3.42511	0.143378	1.51704
H	4.1536	-0.566902	3.34249
H	2.60625	0.37194	2.00098
