15
  This energy is -0.00177883 and Call times are: 10740
C	-0.189674	0.363592	0.110972
O	0.899054	0.671129	-0.342169
O	-0.604046	-0.947069	0.191801
H	-0.924156	1.09089	0.488439
H	-1.49942	-1.04076	0.576692
C	7.86468	-0.0372508	1.60497
O	8.33436	-0.0498038	2.73582
O	7.50611	-1.17985	0.944054
H	7.69236	0.88323	1.02913
H	7.14337	-1.00609	0.0428043
C	6.37256	0.61137	-2.09702
O	6.72998	1.54296	-1.40098
O	6.4681	-0.693766	-1.6387
H	5.95886	0.702524	-3.10788
H	6.15746	-1.3775	-2.2656
