15
  This energy is -0.00405329 and Call times are: 20211
C	0.0850241	0.0520144	-0.412984
O	0.980015	-0.643552	0.034704
O	-0.945009	0.514642	0.375101
H	0.0211383	0.366281	-1.46563
H	-1.58908	1.06028	-0.120936
C	7.27732	0.536704	-1.15974
O	8.09697	0.917106	-1.9862
O	7.63564	0.105238	0.0877978
H	6.19431	0.509247	-1.34662
H	6.86305	-0.167852	0.637837
C	4.15196	-0.598825	1.14126
O	3.97236	-0.193588	0.00829208
O	5.4309	-0.681268	1.67048
H	3.36115	-0.924536	1.8267
H	5.47953	-1.01794	2.58769
