15
  This energy is -0.00956867 and Call times are: 19352
C	-0.318834	0.0973175	-0.263371
O	-0.655684	0.49015	0.840015
O	0.889532	-0.526455	-0.479766
H	-0.937508	0.203716	-1.16716
H	1.02246	-0.786259	-1.41434
C	3.91075	0.11297	-1.15939
O	2.99615	0.181579	-1.97079
O	4.96966	0.978722	-1.16877
H	3.95963	-0.642036	-0.361798
H	5.62383	0.795287	-0.452921
C	6.6279	-0.590799	1.75157
O	5.63657	-1.2883	1.64745
O	6.8501	0.460972	0.875796
H	7.40904	-0.715268	2.51026
H	7.67211	0.966882	1.03496
