15
  This energy is -0.00182573 and Call times are: 19958
C	0.0671666	-0.418647	-0.026717
O	-0.536805	-0.104747	-1.03762
O	0.405923	0.50325	0.938384
H	0.389349	-1.44595	0.200769
H	0.888102	0.106182	1.69234
C	6.77189	-1.4641	0.85861
O	7.02648	-2.49152	1.47438
O	7.26991	-1.21165	-0.390047
H	6.12809	-0.664295	1.25156
H	6.97459	-0.343319	-0.754475
C	5.5975	2.08326	-0.687007
O	5.22558	1.73511	0.417778
O	6.43212	1.27343	-1.4421
H	5.32519	3.02588	-1.17547
H	6.67967	1.63399	-2.31715
