15
  This energy is 9.9716e-05 and Call times are: 2839
C	-0.0233338	-0.371198	0.205324
O	0.274686	0.463379	1.04193
O	-0.218552	-0.042775	-1.11759
H	-0.160331	-1.44018	0.427594
H	-0.45273	-0.815316	-1.67162
C	4.04649	0.240584	-1.06266
O	3.08623	0.399396	-1.80579
O	5.16194	1.02996	-1.12227
H	4.0949	-0.541551	-0.291621
H	5.84829	0.777999	-0.459348
C	6.89726	-0.745963	1.63024
O	5.85347	-1.36862	1.57658
O	7.13468	0.315627	0.770453
H	7.71712	-0.949414	2.32862
H	7.99991	0.757327	0.885556
