15
  This energy is -5.1642e-05 and Call times are: 24285
C	-0.324154	-0.266142	-0.067698
O	0.103947	-0.525489	1.04348
O	0.226987	0.723332	-0.850804
H	-1.17218	-0.788777	-0.535246
H	-0.220336	0.81779	-1.71659
C	24.9819	-0.471639	0.941743
O	25.959	-0.790774	1.60734
O	24.1514	-1.39274	0.364981
H	24.6907	0.571319	0.752063
H	23.4093	-0.980661	-0.138523
C	21.9213	1.15823	-1.13853
O	22.7343	1.86656	-0.575284
O	22.0241	-0.223327	-1.08116
H	21.0661	1.52049	-1.72061
H	21.3267	-0.71169	-1.56305
