15
  This energy is 0.000129358 and Call times are: 15865
C	-0.136238	0.255615	0.31079
O	1.05718	0.0956851	0.499012
O	-0.79553	-0.335163	-0.743906
H	-0.780742	0.87384	0.953687
H	-1.74964	-0.116712	-0.76756
C	13.8315	0.444085	-1.58074
O	13.4435	0.754827	-2.69987
O	13.0142	0.471059	-0.484338
H	14.8591	0.120054	-1.3625
H	13.4721	0.193318	0.344661
C	15.6537	-0.68241	1.84894
O	16.2677	-0.661864	0.798863
O	14.316	-0.320434	1.89541
H	16.0732	-0.974398	2.81851
H	13.904	-0.367189	2.78145
