15
  This energy is -0.000107493 and Call times are: 11412
C	0.40903	-0.0382669	0.108261
O	-0.219928	-0.0199546	1.15197
O	-0.208392	0.0551246	-1.11899
H	1.50434	-0.129217	0.0541687
H	0.42316	0.0266806	-1.86661
C	5.49233	0.473761	1.64597
O	5.68703	0.800864	2.80987
O	6.31038	0.86906	0.623508
H	4.65245	-0.158989	1.32534
H	6.02272	0.524523	-0.255452
C	4.36213	-0.906081	-1.98316
O	3.72097	-1.18409	-0.987311
O	5.49441	-0.110286	-1.89828
H	4.12316	-1.239	-2.99969
H	5.94606	0.060828	-2.749
