15
  This energy is -0.000137127 and Call times are: 13668
C	0.154527	-0.137306	-0.371159
O	1.03583	0.532587	0.138535
O	-1.06234	-0.333329	0.242748
H	0.250269	-0.63539	-1.34771
H	-1.66955	-0.892109	-0.284198
C	4.27619	-0.868905	-0.486694
O	3.27984	-1.49305	-0.829189
O	4.28155	0.492094	-0.350473
H	5.24215	-1.34299	-0.261467
H	5.15778	0.847716	-0.0680122
C	7.84265	0.647831	0.66731
O	7.70067	-0.550038	0.509083
O	6.78657	1.52111	0.455977
H	8.77337	1.13645	0.977621
H	6.99237	2.46544	0.607202
