15
  This energy is -0.000816198 and Call times are: 18324
C	0.198824	-0.375445	-0.000485932
O	-0.990553	-0.619307	0.105145
O	0.675494	0.913155	-0.091953
H	0.98242	-1.1474	-0.0315999
H	1.65044	0.954192	-0.171982
C	6.15913	-1.7037	-0.0179837
O	5.90998	-2.90266	-0.0203173
O	7.07277	-1.14003	-0.865592
H	5.67548	-0.984243	0.658064
H	7.16173	-0.164782	-0.743106
C	6.5695	2.29314	0.438851
O	5.78859	1.6673	1.13066
O	7.33694	1.65216	-0.521741
H	6.73897	3.37426	0.500145
H	7.93649	2.23438	-1.03021
