15
  This energy is -0.000907158 and Call times are: 13280
C	-0.139887	0.236901	0.323728
O	1.04443	0.495602	0.198351
O	-0.780738	-0.668339	-0.492311
H	-0.789979	0.694197	1.08476
H	-1.72936	-0.773475	-0.273975
C	4.03935	1.56367	-0.740426
O	3.91651	2.669	-1.253
O	4.9006	0.618579	-1.22617
H	3.47436	1.23858	0.144826
H	4.88639	-0.219753	-0.705569
C	4.02368	-1.89671	1.35178
O	3.30347	-0.972073	1.678
O	4.86623	-1.78687	0.256058
H	4.0784	-2.86396	1.86436
H	5.40833	-2.57926	0.0683681
