15
  This energy is -0.0049136 and Call times are: 11496
C	-0.107071	-0.252109	0.324758
O	0.787189	0.468468	0.732574
O	-0.586836	-0.164211	-0.962942
H	-0.601185	-1.02184	0.93653
H	-1.30368	-0.805126	-1.14726
C	6.02893	-0.309794	-1.43535
O	6.68498	-0.514577	-2.44888
O	5.50178	-1.3228	-0.682461
H	5.80912	0.694864	-1.04687
H	4.99963	-0.998306	0.102762
C	3.95667	0.95903	1.79694
O	4.47807	1.7582	1.04226
O	4.05993	-0.404513	1.56747
H	3.38007	1.22082	2.69152
H	3.60979	-0.971314	2.22556
