15
  This energy is -0.000315186 and Call times are: 17526
C	-0.419372	-0.0634369	0.0243565
O	0.0950087	-1.16792	0.0522946
O	0.328362	1.08899	-0.0698919
H	-1.50529	0.108368	0.0709909
H	-0.220526	1.89966	-0.0817182
C	6.78165	1.40073	-0.954681
O	7.03974	2.38532	-1.63552
O	7.55425	1.01652	0.106621
H	5.91617	0.747359	-1.13533
H	7.21684	0.204691	0.555083
C	5.44941	-1.92372	0.922843
O	4.85377	-1.47381	-0.0378219
O	6.59814	-1.30853	1.39671
H	5.15468	-2.81719	1.48509
H	7.00984	-1.73955	2.17241
