15
  This energy is -0.000870084 and Call times are: 18030
C	-0.383927	-0.116869	0.139399
O	0.362838	-0.183593	1.1002
O	0.0581094	0.276173	-1.10406
H	-1.45648	-0.359775	0.178645
H	-0.652911	0.282	-1.77713
C	8.22135	-0.0692294	1.40398
O	8.94096	-0.131762	2.39283
O	7.78894	1.11889	0.882166
H	7.86434	-0.952783	0.855845
H	7.21733	1.00479	0.085751
C	5.87137	-0.473035	-1.86197
O	6.32416	-1.45214	-1.29945
O	6.1495	0.803499	-1.39756
H	5.2288	-0.497219	-2.74955
H	5.74334	1.52981	-1.91184
