15
  This energy is -0.000369227 and Call times are: 14605
C	-0.017334	0.422506	0.0409765
O	0.316695	0.204777	-1.11066
O	-0.261374	-0.594972	0.936104
H	-0.151123	1.43112	0.460149
H	-0.520481	-0.269129	1.82227
C	10.0919	-0.787732	1.38558
O	10.5677	-1.34963	2.36407
O	10.7913	0.130184	0.651307
H	9.07262	-0.970225	1.01642
H	10.273	0.493857	-0.105739
C	8.01764	0.740711	-1.731
O	7.51213	-0.0868521	-0.996378
O	9.31554	1.17957	-1.51783
H	7.52431	1.20214	-2.59413
H	9.63883	1.84526	-2.15761
