15
  This energy is -0.00107558 and Call times are: 21261
C	0.229945	-0.273166	0.230209
O	-0.916622	-0.368991	0.632015
O	0.579938	0.592656	-0.781684
H	1.0711	-0.858018	0.631833
H	1.5344	0.560833	-0.997543
C	6.48007	1.14935	1.26323
O	6.24126	1.95603	2.15307
O	7.7357	0.967291	0.752193
H	5.71451	0.508546	0.802945
H	7.76721	0.282825	0.0418826
C	6.67192	-1.64344	-1.65489
O	5.6134	-1.38362	-1.11443
O	7.83682	-0.989116	-1.28413
H	6.80773	-2.38438	-2.45103
H	8.63947	-1.26228	-1.77209
