15
  This energy is -0.00327405 and Call times are: 21093
C	-0.327579	-0.235958	0.132312
O	0.0686108	-0.750008	-0.899207
O	0.261414	0.891054	0.660518
H	-1.17421	-0.618557	0.722
H	-0.1631	1.18957	1.49075
C	8.78943	-0.695918	-0.0923095
O	9.90819	-1.19112	-0.144529
O	8.25158	0.0185157	-1.1273
H	8.12754	-0.781606	0.781266
H	7.34317	0.352408	-0.934109
C	5.06643	0.701231	0.641955
O	5.66004	0.049047	1.48003
O	5.65116	0.981173	-0.583726
H	4.05853	1.11451	0.762812
H	5.10081	1.51111	-1.19467
