15
  This energy is -6.6734e-05 and Call times are: 24159
C	0.370313	-0.20774	0.0142466
O	-0.364859	-0.765812	0.810064
O	-0.0429619	0.877233	-0.726096
H	1.40906	-0.514598	-0.180043
H	0.6541	1.2198	-1.32222
C	25.4068	0.431149	-1.60932
O	25.0552	0.747354	-2.73892
O	25.9238	-0.801006	-1.31712
H	25.3381	1.10268	-0.741624
H	26.16	-0.9038	-0.364409
C	26.3921	-0.0508107	2.2828
O	25.9216	0.999395	1.88815
O	26.6016	-1.10677	1.40894
H	26.6845	-0.260706	3.31806
H	26.9834	-1.91117	1.81409
