15
  This energy is 0.00308861 and Call times are: 3984
C	0.370842	0.164347	-0.126321
O	0.618634	-0.951064	0.297593
O	-0.908042	0.674642	-0.137541
H	1.13136	0.849662	-0.529872
H	-0.953807	1.58052	-0.506191
C	8.16545	-1.03795	0.278068
O	9.12917	-1.76411	0.486634
O	7.48901	-1.03574	-0.910766
H	7.76469	-0.332592	1.01998
H	6.73672	-0.397081	-0.924971
C	5.07122	1.56271	0.158791
O	5.75657	1.46045	1.15876
O	5.33404	0.791216	-0.962948
H	4.21788	2.24129	0.0464643
H	4.732	0.940298	-1.71945
