15
  This energy is 0.000130439 and Call times are: 9165
C	-0.14972	-0.166112	-0.361222
O	0.49826	0.815622	-0.67992
O	-0.29096	-0.553845	0.952469
H	-0.669392	-0.817382	-1.08003
H	-0.83792	-1.35934	1.0555
C	10.5613	-0.86411	-0.693134
O	9.61012	-1.46949	-1.17089
O	11.7886	-0.827792	-1.29589
H	10.5121	-0.303475	0.251233
H	12.4512	-0.299738	-0.78969
C	13.3206	1.2845	1.33718
O	12.1867	1.17155	1.76343
O	13.694	0.679988	0.146518
H	14.1242	1.84744	1.82565
H	14.6246	0.824674	-0.118294
