15
  This energy is -0.000172595 and Call times are: 23697
C	0.172071	0.357709	0.151415
O	-0.566657	-0.0620413	1.02511
O	0.329134	-0.296782	-1.04985
H	0.767619	1.27855	0.242347
H	0.953215	0.157042	-1.65249
C	15.5068	-0.855829	-0.238814
O	14.4478	-1.44906	-0.400332
O	16.7016	-1.34661	-0.68889
H	15.5883	0.111973	0.276243
H	17.4637	-0.754326	-0.482946
C	18.6692	1.52809	0.57837
O	17.5471	1.84725	0.923428
O	18.891	0.340704	-0.102461
H	19.5758	2.11642	0.760823
H	19.8239	0.166411	-0.339768
