15
  This energy is 0.000326414 and Call times are: 10698
C	0.389702	0.031818	0.166164
O	0.410814	0.662333	-0.87655
O	-0.743877	-0.613487	0.607354
H	1.25692	-0.0761116	0.834885
H	-0.611094	-1.07796	1.45897
C	7.77592	-0.0155841	-0.834298
O	6.70283	-0.0402092	-1.42374
O	8.34194	1.14531	-0.383896
H	8.37095	-0.914404	-0.618345
H	9.20582	1.00165	0.0711865
C	11.3212	-0.54066	1.03837
O	10.7106	-1.49234	0.589401
O	10.8172	0.745532	0.918979
H	12.2847	-0.598334	1.55761
H	11.3754	1.44781	1.30912
