15
  This energy is -4.1387e-05 and Call times are: 14773
C	0.244083	0.322771	-0.129355
O	-0.418992	-0.0121406	-1.09549
O	0.1286	-0.306334	1.09006
H	0.979489	1.14122	-0.144579
H	0.722986	0.0700203	1.77099
C	11.9577	-0.49425	-1.29938
O	11.2195	-0.829456	-2.21712
O	12.681	-1.39684	-0.569237
H	12.1016	0.549642	-0.986088
H	13.2281	-0.97321	0.134458
C	14.2192	1.18332	1.60289
O	13.5268	1.87434	0.879624
O	14.2497	-0.194461	1.45008
H	14.8585	1.55928	2.40987
H	14.834	-0.668459	2.0753
