15
  This energy is -0.000352137 and Call times are: 17652
C	-0.1704	0.21435	-0.32482
O	0.837644	-0.316477	-0.75762
O	-0.568992	0.0676837	0.98502
H	-0.83876	0.845541	-0.929633
H	-1.39602	0.550755	1.1882
C	7.89528	1.12483	1.291
O	8.09218	1.92464	2.19715
O	8.73091	0.0701446	1.04551
H	7.03929	1.18436	0.603751
H	8.4384	-0.483981	0.283011
C	6.74892	-1.18242	-1.82579
O	6.09336	-0.210726	-1.5
O	7.90366	-1.52197	-1.13742
H	6.50698	-1.85631	-2.65562
H	8.36566	-2.31788	-1.46918
