15
  This energy is -0.00913657 and Call times are: 6103
C	0.119991	-0.344715	0.217403
O	0.0507082	0.562838	1.02783
O	-0.162424	-0.156216	-1.11706
H	0.408553	-1.3751	0.47418
H	-0.0642512	-0.973811	-1.64669
C	4.2449	-1.17119	1.20395
O	4.57165	-1.9952	2.04883
O	2.94179	-0.816948	0.986433
H	4.96257	-0.650375	0.554122
H	2.83972	-0.141735	0.273905
C	3.7629	1.59267	-1.7082
O	4.87244	1.18983	-1.4137
O	2.63801	1.11453	-1.05354
H	3.54815	2.33783	-2.48274
H	1.7889	1.49462	-1.35606
