15
  This energy is 0.000267342 and Call times are: 15739
C	-0.387661	0.140221	-0.102699
O	-0.14146	-0.774542	-0.869406
O	0.505091	0.54316	0.865135
H	-1.32629	0.714444	-0.114884
H	0.171026	1.28816	1.40549
C	12.3084	-1.67739	0.228227
O	12.0206	-2.85591	0.395197
O	13.4775	-1.28144	-0.361108
H	11.6593	-0.844528	0.534106
H	13.5642	-0.300378	-0.424515
C	12.7219	2.33498	-0.0576704
O	11.7271	1.8489	0.446466
O	13.7369	1.52622	-0.545735
H	12.9096	3.40869	-0.172478
H	14.4977	2.00359	-0.933446
