15
  This energy is -0.00520767 and Call times are: 19058
C	0.141554	0.0848721	-0.391471
O	-0.508494	1.056	-0.0456555
O	0.307977	-1.01166	0.424614
H	0.643515	-0.000997974	-1.36695
H	0.853377	-1.71335	0.0137923
C	4.00577	-1.07031	0.668851
O	3.15724	-1.81377	1.14513
O	5.10124	-1.53858	-0.00315322
H	3.96126	0.025879	0.739242
H	5.69204	-0.817421	-0.327066
C	6.46696	1.84023	-0.681395
O	5.45488	2.12012	-0.0670307
O	6.80092	0.518245	-0.933173
H	7.18382	2.56749	-1.0795
H	7.63146	0.388105	-1.43342
