15
  This energy is 0.000191027 and Call times are: 15067
C	-0.0237618	-0.349628	0.24018
O	-0.403934	-0.672932	-0.871661
O	0.378424	0.934938	0.530362
H	0.0310584	-1.04115	1.0944
H	0.656726	1.04588	1.46248
C	15.0079	-1.40847	-0.73093
O	15.5062	-2.39492	-1.25834
O	14.7332	-1.34909	0.607696
H	14.741	-0.495083	-1.28143
H	14.3339	-0.489031	0.881445
C	13.3671	2.09341	0.450862
O	13.6606	1.90889	-0.715295
O	13.5876	1.10881	1.40192
H	12.9203	3.01096	0.850573
H	13.3211	1.3449	2.31309
