15
  This energy is 6.0266e-05 and Call times are: 7931
C	0.146469	0.389965	-0.0834558
O	-1.05352	0.506949	0.0942412
O	0.782271	-0.828644	-0.000879238
H	0.815766	1.23052	-0.320969
H	1.74526	-0.768232	-0.167059
C	19.4516	-0.324451	1.68836
O	19.6364	-0.564125	2.87493
O	18.6875	0.726032	1.25985
H	19.8789	-0.926101	0.873515
H	18.6339	0.787667	0.276312
C	19.1924	-0.0214947	-2.33568
O	19.8422	-0.912443	-1.82191
O	18.5255	0.91047	-1.55512
H	19.0726	0.12927	-3.41466
H	18.0288	1.59	-2.05368
