15
  This energy is 5.9944e-05 and Call times are: 15319
C	0.0934303	0.156291	0.383842
O	-0.271423	1.10346	-0.2907
O	0.146838	-1.12352	-0.12144
H	0.406493	0.237265	1.43567
H	0.458297	-1.77983	0.534953
C	19.1328	0.899959	0.395234
O	20.1465	1.52413	0.682281
O	18.1894	1.38502	-0.468206
H	18.8956	-0.0934205	0.802072
H	17.4315	0.766336	-0.598242
C	15.9997	-1.59179	-0.176083
O	16.9104	-1.90199	0.568564
O	16.0137	-0.377905	-0.846047
H	15.1179	-2.20865	-0.384071
H	15.2409	-0.213345	-1.42283
