15
  This energy is -0.000101824 and Call times are: 15109
C	-0.306012	-0.294486	-0.0111849
O	-0.605703	0.475188	0.884937
O	0.833003	-0.128498	-0.766938
H	-0.906517	-1.17313	-0.290971
H	0.942745	-0.822699	-1.44859
C	12.9209	0.614502	-1.45662
O	13.4166	1.05139	-2.48766
O	13.6651	0.0119966	-0.479854
H	11.8467	0.668003	-1.22906
H	13.1229	-0.286481	0.288866
C	10.7521	-0.63294	1.72018
O	10.2127	-0.0802149	0.780179
O	12.1218	-0.848522	1.72518
H	10.2372	-0.999527	2.61559
H	12.468	-1.29939	2.52132
