15
  This energy is -0.000191611 and Call times are: 8997
C	-0.189047	0.206138	-0.319779
O	0.932147	-0.0716849	-0.708348
O	-0.633753	-0.139441	0.936756
H	-0.931351	0.747011	-0.925868
H	-1.55342	0.149249	1.10843
C	8.99094	-1.33246	-0.875368
O	9.4722	-2.26677	-1.50388
O	9.15925	-1.18894	0.474438
H	8.3885	-0.536735	-1.3363
H	8.71194	-0.386697	0.835476
C	7.17731	1.93802	0.662995
O	7.10652	1.69202	-0.526355
O	7.88048	1.10411	1.51897
H	6.71568	2.80095	1.15649
H	7.88358	1.3801	2.45748
