15
  This energy is 1.4473e-05 and Call times are: 23865
C	0.00856781	-0.0566478	-0.420961
O	-0.280653	-1.13713	0.0629336
O	0.238299	1.05525	0.358119
H	0.109978	0.123549	-1.50177
H	0.460197	1.85038	-0.168331
C	19.4142	-0.469052	1.18026
O	18.583	-0.789655	2.02043
O	19.551	-1.12985	-0.00949502
H	20.1149	0.368417	1.30788
H	20.263	-0.75331	-0.579851
C	22.32	1.02797	-1.20028
O	22.0934	1.52368	-0.112636
O	21.5887	-0.0610137	-1.64956
H	23.0874	1.37332	-1.90252
H	21.84	-0.392872	-2.53483
