15
  This energy is 0.000580517 and Call times are: 18618
C	-0.0309921	0.184841	-0.381266
O	0.603436	-0.841879	-0.550363
O	-0.500025	0.558531	0.858264
H	-0.280774	0.890869	-1.18752
H	-0.991418	1.40519	0.840565
C	5.71847	-1.33574	-0.847768
O	6.21307	-2.27895	-1.45216
O	6.39979	-0.636699	0.110382
H	4.69525	-0.972931	-1.02086
H	5.86751	0.0943198	0.50575
C	3.58644	1.67304	0.811625
O	3.0983	0.97207	-0.0546576
O	4.88391	1.45764	1.25066
H	3.07681	2.50564	1.30996
H	5.19252	2.06908	1.94914
