15
  This energy is 0.000978034 and Call times are: 5070
C	0.189678	0.373806	0.0691493
O	0.467295	0.0566429	-1.07435
O	-0.597076	-0.416923	0.876513
H	0.535784	1.30156	0.549135
H	-0.734528	-0.0345056	1.76728
C	9.07055	0.0609078	-1.18368
O	9.97509	0.106369	-2.00789
O	7.7657	-0.152869	-1.53376
H	9.22697	0.186577	-0.102796
H	7.15527	-0.162818	-0.758326
C	6.51972	0.0119196	1.95363
O	7.71044	0.192492	2.12587
O	6.00883	-0.181085	0.679148
H	5.76518	-0.0154333	2.74812
H	5.04122	-0.318511	0.63639
