15
  This energy is 0.000327447 and Call times are: 9039
C	0.368541	0.20876	-0.032971
O	0.64144	-0.900308	0.392164
O	-0.92583	0.586403	-0.312358
H	1.11677	0.991791	-0.227695
H	-0.991452	1.50444	-0.646301
C	8.61607	-0.156908	0.69689
O	7.50271	-0.257313	1.19681
O	9.04256	-0.967156	-0.319235
H	9.36123	0.584935	1.0178
H	9.9618	-0.763162	-0.614891
C	12.3792	0.630274	-0.556385
O	11.8771	1.27846	0.34239
O	11.6745	-0.392917	-1.17204
H	13.3901	0.780257	-0.952701
H	12.1571	-0.859301	-1.88382
