15
  This energy is -0.00102493 and Call times are: 17946
C	0.182793	0.214094	0.318184
O	0.457648	-0.960022	0.49468
O	-0.581832	0.633658	-0.74736
H	0.514254	1.02757	0.98098
H	-0.719832	1.60289	-0.759329
C	10.6884	0.51172	-0.736187
O	11.7357	0.884846	-1.24948
O	10.1884	-0.748643	-0.916262
H	10.0659	1.15025	-0.0932139
H	9.33783	-0.897772	-0.43847
C	7.20045	-0.15863	1.1969
O	7.75354	0.92226	1.27341
O	7.75166	-1.18566	0.445932
H	6.25642	-0.419577	1.68884
H	7.23838	-2.01843	0.441934
