15
  This energy is -0.00103292 and Call times are: 20547
C	0.171553	-0.353881	0.160711
O	-0.902557	-0.21155	0.718632
O	0.624922	0.533528	-0.789569
H	0.861276	-1.18729	0.362231
H	1.50233	0.290872	-1.14996
C	5.22833	0.710156	-1.58419
O	5.17293	1.19881	-2.70567
O	5.6958	1.40314	-0.501527
H	4.9107	-0.316539	-1.35272
H	5.67767	0.874432	0.331641
C	5.18065	-1.4067	1.86088
O	4.79086	-1.9052	0.821819
O	5.65026	-0.102389	1.88922
H	5.20017	-1.91158	2.83351
H	5.9425	0.214435	2.7674
