15
  This energy is -0.00596076 and Call times are: 17694
C	0.0214465	0.423909	0.0182023
O	-0.657006	0.0754313	0.968734
O	0.556492	-0.482648	-0.869463
H	0.262353	1.47283	-0.211202
H	1.07752	-0.0574338	-1.58103
C	6.6244	1.25603	-0.420994
O	7.42542	2.13671	-0.707937
O	5.41694	1.12565	-1.05023
H	6.8042	0.502066	0.358613
H	4.88387	0.36872	-0.708293
C	4.39266	-1.82926	0.939964
O	5.48963	-1.60142	1.41412
O	3.88145	-1.03763	-0.077167
H	3.728	-2.64298	1.25202
H	2.99332	-1.29481	-0.396627
