15
  This energy is 0.000239354 and Call times are: 21639
C	0.30322	-0.297559	-0.00263147
O	-0.680256	-0.808056	-0.50999
O	0.300189	1.00258	0.450902
H	1.26221	-0.819199	0.13569
H	1.15934	1.2749	0.833417
C	16.3688	-0.305895	-1.64491
O	16.7121	-0.523879	-2.79999
O	15.091	0.0504202	-1.31149
H	17.0503	-0.376858	-0.78516
H	14.9707	0.191222	-0.3421
C	15.8145	0.287569	2.31645
O	16.9055	-0.0338759	1.88472
O	14.7359	0.45821	1.46195
H	15.5826	0.466745	3.37258
H	13.8987	0.716736	1.89697
