15
  This energy is 2.5621e-05 and Call times are: 7721
C	0.0114392	0.135634	-0.402446
O	-0.615213	-0.909572	-0.412291
O	0.529581	0.666368	0.757691
H	0.215199	0.736654	-1.30142
H	1.00764	1.50821	0.611527
C	22.6831	-0.591188	-1.30503
O	23.3861	-0.999339	-2.2209
O	21.408	-1.04126	-1.09887
H	23.0121	0.164031	-0.577049
H	20.9709	-0.618149	-0.321754
C	20.8384	1.10933	1.86627
O	21.977	1.42039	1.57166
O	20.1462	0.16554	1.12281
H	20.2701	1.52221	2.70759
H	19.2374	-0.021664	1.43266
