15
  This energy is -0.00792967 and Call times are: 2797
C	0.402241	-0.0120586	0.136189
O	0.453212	0.227672	-1.05762
O	-0.793462	-0.188297	0.795965
H	1.28907	-0.107223	0.780695
H	-0.678466	-0.374117	1.75035
C	4.18663	1.232	0.916364
O	3.62481	2.10795	1.56184
O	3.57388	0.0553797	0.583187
H	5.22081	1.31432	0.552664
H	4.15558	-0.548044	0.0620964
C	6.52322	-1.28445	-1.21898
O	6.94608	-0.202334	-0.858022
O	5.23161	-1.6809	-0.907332
H	7.0909	-2.02127	-1.79874
H	4.97784	-2.56574	-1.23846
