15
  This energy is -0.00166609 and Call times are: 11738
C	-0.0781559	0.22762	-0.350102
O	-0.415161	-0.915688	-0.60411
O	0.441716	0.581401	0.874905
H	-0.157487	1.06264	-1.06239
H	0.666634	1.53251	0.933284
C	5.71421	1.39122	0.757312
O	6.20666	2.37266	1.29939
O	6.32154	0.742171	-0.282295
H	4.75189	0.951454	1.05584
H	5.80173	-0.029602	-0.611224
C	3.62884	-1.78092	-0.635759
O	3.20088	-1.1155	0.288442
O	4.84035	-1.46826	-1.23331
H	3.12633	-2.65272	-1.07018
H	5.10493	-2.05745	-1.96804
