15
  This energy is -0.000841458 and Call times are: 9921
C	0.258418	0.336052	0.0279212
O	0.352431	-0.255808	1.0891
O	-0.563614	-0.105177	-0.984823
H	0.810739	1.25729	-0.211158
H	-0.53605	0.470479	-1.77632
C	9.82043	0.20328	-1.70283
O	9.63556	0.340675	-2.90554
O	8.9231	0.636655	-0.765869
H	10.7137	-0.275	-1.27644
H	9.21343	0.453671	0.159469
C	10.9572	-0.517054	2.1104
O	11.6645	-0.852371	1.17907
O	9.74575	0.119554	1.88747
H	11.1925	-0.675334	3.16912
H	9.24448	0.352113	2.6947
