15
  This energy is -0.0006895 and Call times are: 12955
C	0.188734	-0.259035	-0.278875
O	-1.01062	-0.38051	-0.457881
O	0.703043	0.588904	0.676403
H	0.952554	-0.804933	-0.852875
H	1.68168	0.581857	0.705278
C	5.49579	1.62659	0.1354
O	5.90864	2.7764	0.219523
O	5.86098	0.646934	1.01733
H	4.80349	1.28567	-0.647576
H	5.44527	-0.225674	0.817926
C	3.82469	-1.97475	-0.632464
O	3.58312	-1.01577	-1.34105
O	4.67784	-1.85654	0.454147
H	3.41373	-2.98111	-0.772546
H	4.81343	-2.6787	0.966629
