15
  This energy is -0.0139557 and Call times are: 25883
C	0.403553	0.132652	0.00623485
O	-0.259908	1.03563	0.485506
O	-0.167868	-1.04067	-0.432918
H	1.4964	0.173218	-0.116029
H	0.487673	-1.67261	-0.792825
C	4.00064	-0.941078	-0.418642
O	3.0194	-1.61485	-0.70637
O	4.17981	0.333543	-0.881395
H	4.81372	-1.29818	0.229385
H	5.0179	0.745316	-0.561922
C	7.42131	0.798639	0.855807
O	7.13938	-0.335376	1.19434
O	6.57789	1.52126	0.0257344
H	8.32588	1.33951	1.15663
H	6.88505	2.4237	-0.193894
