15
  This energy is -0.000492685 and Call times are: 22311
C	0.241251	0.292362	-0.191866
O	-0.00630023	-0.552362	-1.03472
O	-0.231404	0.198425	1.09803
H	0.852197	1.18758	-0.382205
H	0.0478049	0.948543	1.66192
C	8.95468	-0.406629	1.02171
O	8.00005	-0.681819	1.73761
O	10.0791	-1.18331	0.963305
H	8.9905	0.478736	0.371004
H	10.7592	-0.830669	0.341129
C	11.7806	0.989997	-1.51121
O	10.7303	1.58625	-1.36494
O	12.0341	-0.181325	-0.813858
H	12.5945	1.30129	-2.17591
H	12.9036	-0.591764	-0.994291
