15
  This energy is -5.6111e-05 and Call times are: 25589
C	0.0766288	-0.287897	0.302876
O	-0.128423	0.766583	0.878436
O	0.0376328	-0.391126	-1.06967
H	0.306621	-1.23274	0.817935
H	0.221884	-1.2981	-1.38914
C	11.462	0.471011	-1.54603
O	11.022	0.81277	-2.63651
O	10.9032	-0.537307	-0.809876
H	12.3347	0.939736	-1.06931
H	11.3703	-0.694839	0.045096
C	13.333	-0.219837	1.97165
O	13.7289	0.650735	1.21969
O	12.232	-0.995285	1.64144
H	13.7828	-0.468905	2.93956
H	11.9856	-1.67022	2.30534
