15
  This energy is -0.00340921 and Call times are: 19671
C	-0.151264	-0.345029	0.196379
O	-0.694966	0.611652	0.720207
O	0.759486	-0.198819	-0.825984
H	-0.335657	-1.39009	0.487513
H	1.11274	-1.05367	-1.14699
C	2.9442	-0.411304	1.65026
O	2.69402	-0.714524	2.81002
O	3.02019	0.887806	1.22902
H	3.12743	-1.14871	0.855751
H	3.22997	0.969768	0.268133
C	3.79936	-0.0115584	-2.28176
O	3.70308	-1.11455	-1.77755
O	3.61833	1.13386	-1.52163
H	4.02759	0.181453	-3.33625
H	3.71461	1.97577	-2.01041
