15
  This energy is 0.000405528 and Call times are: 25253
C	-0.202823	0.311615	-0.205546
O	0.83096	0.798614	0.217975
O	-0.531272	-1.00809	0.0102588
H	-0.951152	0.871433	-0.786504
H	-1.39013	-1.25728	-0.388332
C	11.5687	-1.10761	-0.141557
O	10.6243	-1.88205	-0.230668
O	12.659	-1.17844	-0.964461
H	11.6217	-0.297164	0.599355
H	13.335	-0.486375	-0.769089
C	14.376	1.70341	0.613044
O	13.3549	1.65459	1.2727
O	14.6019	0.797572	-0.412138
H	15.1828	2.43184	0.753699
H	15.4488	0.912309	-0.888138
