15
  This energy is 0.000191809 and Call times are: 17820
C	0.40917	0.0112811	0.113769
O	-0.0552812	1.10056	0.401889
O	-0.353265	-0.978546	-0.465026
H	1.45803	-0.273069	0.286797
H	0.153988	-1.79763	-0.639398
C	6.42784	1.35915	0.149313
O	5.66156	2.30841	0.255595
O	7.77491	1.51678	-0.0280825
H	6.10324	0.309487	0.186826
H	8.25773	0.658697	-0.0960168
C	8.46089	-2.12448	-0.13858
O	7.25486	-2.12222	0.0213111
O	9.16684	-0.934287	-0.226038
H	9.08324	-3.02246	-0.225825
H	10.1316	-1.03256	-0.354403
