15
  This energy is -0.000592644 and Call times are: 24917
C	-0.0980211	0.410188	-0.0512668
O	0.300648	0.295248	1.09464
O	-0.16802	-0.662406	-0.911914
H	-0.430983	1.36198	-0.491867
H	-0.506793	-0.418963	-1.79768
C	10.7172	1.34127	-0.4306
O	11.4245	2.29523	-0.729295
O	11.0846	0.0468853	-0.676567
H	9.73637	1.44124	0.0557789
H	10.4098	-0.608609	-0.37827
C	7.98892	-1.39196	0.768499
O	7.7866	-0.203028	0.928477
O	9.15824	-1.83829	0.171799
H	7.3023	-2.19336	1.06447
H	9.23503	-2.80962	0.0845848
