15
  This energy is -0.00109067 and Call times are: 16767
C	-0.272736	-0.324039	0.0332319
O	0.835505	-0.820148	-0.0712904
O	-0.466604	1.03922	0.0300313
H	-1.19888	-0.909105	0.137406
H	-1.40843	1.29055	0.12172
C	6.18657	1.04546	1.20613
O	6.66224	1.77658	2.06565
O	6.5716	1.10345	-0.105084
H	5.4173	0.287402	1.41145
H	6.09831	0.451334	-0.674962
C	4.27856	-1.60354	-1.18012
O	4.02994	-1.55023	0.00959981
O	5.22081	-0.758384	-1.74621
H	3.80712	-2.29058	-1.89216
H	5.35522	-0.872012	-2.70849
