15
  This energy is -0.0078207 and Call times are: 8695
C	-0.00423725	0.21627	-0.36565
O	-0.516729	-0.863865	-0.602097
O	0.458403	0.546992	0.888406
H	0.131945	1.0079	-1.11776
H	0.844185	1.44602	0.927576
C	4.07153	1.60182	-0.0484249
O	4.54224	2.7313	-0.0960585
O	4.029	0.870125	1.10644
H	3.64697	1.08357	-0.920055
H	3.62035	-0.0198449	0.984022
C	2.40868	-2.05788	-0.48819
O	2.50808	-1.30421	-1.43802
O	2.86261	-1.68103	0.766598
H	1.97203	-3.06254	-0.524031
H	2.74159	-2.35016	1.46987
