15
  This energy is 0.000136028 and Call times are: 21723
C	-0.363169	-0.182167	-0.124153
O	0.428668	-0.343192	-1.03646
O	-0.0201469	0.480603	1.03306
H	-1.40202	-0.544582	-0.14302
H	-0.757316	0.532797	1.67529
C	14.8855	1.52999	-0.121924
O	14.3131	2.6101	-0.194306
O	15.0727	0.721694	-1.20937
H	15.2942	1.12072	0.81298
H	15.5503	-0.113878	-0.990889
C	16.8364	-1.91242	0.712103
O	16.6049	-1.10297	1.59031
O	16.4375	-1.67483	-0.594415
H	17.3581	-2.86564	0.855396
H	16.6661	-2.37995	-1.2328
