15
  This energy is 3.6834e-05 and Call times are: 25001
C	-0.347775	-0.162048	-0.182437
O	0.535755	-0.986614	-0.339635
O	-0.129403	1.02646	0.477742
H	-1.37819	-0.29077	-0.546547
H	-0.930006	1.5879	0.526934
C	13.2942	-0.168376	-1.71709
O	13.1427	-0.274925	-2.92757
O	13.9069	-1.1321	-0.96425
H	12.9548	0.701453	-1.13679
H	13.9534	-0.900927	-0.00590746
C	13.5125	0.722096	2.22134
O	12.9915	1.49473	1.43929
O	14.0434	-0.481115	1.78201
H	13.6113	0.888545	3.30015
H	14.442	-1.03839	2.48025
