15
  This energy is -0.0167485 and Call times are: 11824
C	0.246107	-0.284256	-0.197788
O	-0.53546	-0.92489	0.483378
O	0.228996	1.09222	-0.230668
H	1.01973	-0.739098	-0.834602
H	0.913724	1.46799	-0.821053
C	5.72089	0.844463	-1.16075
O	5.0421	1.44222	-1.98628
O	5.18639	0.291721	-0.0295152
H	6.80676	0.701758	-1.25609
H	5.85998	-0.15611	0.535953
C	8.43496	-1.00395	1.19914
O	8.77782	-0.470235	0.161023
O	7.10708	-0.991392	1.59805
H	9.10645	-1.52386	1.89202
H	6.92405	-1.4447	2.4454
