15
  This energy is -0.000101498 and Call times are: 8141
C	0.364237	0.20653	-0.071883
O	-0.422513	1.03781	0.346739
O	0.0136877	-1.11515	-0.234209
H	1.40403	0.433016	-0.351948
H	0.747417	-1.66469	-0.578087
C	8.50467	1.7265	0.0129417
O	8.35352	2.94165	0.0241748
O	9.72148	1.13794	-0.196589
H	7.68462	1.01105	0.168556
H	9.68136	0.152042	-0.176279
C	8.40305	-2.31537	0.0825098
O	7.38833	-1.66692	0.25553
O	9.6175	-1.68529	-0.142607
H	8.45965	-3.40993	0.0863175
H	10.379	-2.28578	-0.270951
