15
  This energy is 0.00063514 and Call times are: 15025
C	0.105223	0.272111	0.308827
O	-0.511417	-0.631599	0.845771
O	0.346228	0.287969	-1.0468
H	0.51628	1.13872	0.848198
H	0.852508	1.07495	-1.33481
C	13.5573	-0.96119	0.869475
O	14.3715	-1.64859	1.47289
O	13.1682	0.274569	1.3082
H	13.0736	-1.27413	-0.0668614
H	12.5072	0.703899	0.714348
C	10.8455	0.847838	-1.52336
O	11.2759	-0.256295	-1.79861
O	11.2736	1.51198	-0.383965
H	10.1115	1.40414	-2.11758
H	10.8743	2.39383	-0.242997
