15
  This energy is -0.000213214 and Call times are: 9753
C	-0.0516147	-0.184661	0.379113
O	0.385526	-1.04643	-0.363525
O	-0.288212	1.10125	-0.0527774
H	-0.291528	-0.353479	1.4397
H	-0.638353	1.68218	0.653285
C	15.9314	-0.589552	0.789108
O	16.9427	-1.01319	1.33444
O	15.1045	0.325596	1.38042
H	15.6039	-0.904487	-0.211964
H	14.3322	0.5685	0.81602
C	12.7452	0.443737	-1.4764
O	13.5604	-0.362005	-1.88427
O	12.8884	1.02655	-0.226439
H	11.8576	0.775768	-2.02698
H	12.1861	1.66215	0.0179602
