15
  This energy is -0.0032405 and Call times are: 19442
C	-0.342	0.212266	-0.135905
O	-0.307592	-0.824659	-0.775317
O	0.606286	0.51646	0.815037
H	-1.11811	0.982645	-0.258677
H	0.449746	1.3813	1.2465
C	3.1227	0.702204	-1.56497
O	2.92467	1.20921	-2.66192
O	3.43341	-0.620895	-1.4108
H	3.06855	1.26024	-0.619325
H	3.56386	-0.878745	-0.467123
C	3.66702	-0.415049	2.28306
O	3.38621	0.735736	2.00571
O	3.80696	-1.37039	1.28792
H	3.8302	-0.796876	3.29739
H	4.03362	-2.26817	1.6035
