15
  This energy is 0.00384243 and Call times are: 5530
C	-0.14283	-0.390978	0.0850066
O	0.571054	-0.494548	-0.89728
O	-0.361718	0.818738	0.705285
H	-0.665799	-1.23762	0.5547
H	-0.955866	0.7478	1.48024
C	5.20088	0.91174	-0.479912
O	4.21698	1.56296	-0.807659
O	5.59273	-0.216245	-1.147
H	5.84751	1.17424	0.369522
H	6.40329	-0.628705	-0.763729
C	8.5178	-0.825512	1.04715
O	8.06212	0.185911	1.54661
O	7.91173	-1.4066	-0.0562985
H	9.4098	-1.35575	1.39995
H	8.34695	-2.21658	-0.390218
