15
  This energy is -0.000171509 and Call times are: 15277
C	-0.361736	-0.215236	0.0575447
O	-0.655113	0.780792	-0.580503
O	0.931166	-0.47498	0.453786
H	-1.0889	-0.980644	0.367854
H	1.01486	-1.31003	0.958057
C	16.2797	-0.15039	1.66325
O	16.6296	-0.250119	2.83251
O	15.0859	-0.638716	1.20792
H	16.8878	0.334893	0.886597
H	14.9476	-0.48107	0.243521
C	15.6573	0.464064	-2.28478
O	16.6805	0.84946	-1.75141
O	14.6808	-0.194511	-1.55306
H	15.4134	0.59097	-3.34577
H	13.8928	-0.467728	-2.06425
