15
  This energy is -0.00352235 and Call times are: 6209
C	0.136835	-0.267918	0.299977
O	0.75576	0.769515	0.46094
O	-0.798759	-0.413325	-0.699818
H	0.267516	-1.16315	0.926392
H	-1.21438	-1.29979	-0.706999
C	4.11965	-1.43115	0.0991135
O	3.4401	-2.44737	0.170503
O	3.57351	-0.192733	-0.0982354
H	5.21551	-1.42601	0.186464
H	4.24944	0.525565	-0.132614
C	6.84251	1.5546	-0.053247
O	7.1948	0.402814	0.118126
O	5.50063	1.87127	-0.20046
H	7.51549	2.41805	-0.1065
H	5.31075	2.82162	-0.333717
