15
  This energy is 0.000241061 and Call times are: 17904
C	-0.397267	0.0212192	-0.149062
O	0.279129	-0.45062	-1.04634
O	0.144797	0.375286	1.0662
H	-1.4797	0.202888	-0.228018
H	-0.518121	0.740055	1.68757
C	11.6484	-0.409262	-1.65235
O	11.881	-0.694491	-2.8203
O	12.5856	-0.532486	-0.66378
H	10.6768	-0.0335644	-1.30083
H	12.2475	-0.263504	0.223561
C	10.3197	0.67671	2.00924
O	9.58633	0.738301	1.0405
O	11.6272	0.233121	1.88173
H	10.0371	0.951553	3.03193
H	12.1428	0.216883	2.71292
