15
  This energy is -0.00126975 and Call times are: 17736
C	-0.216995	-0.324711	-0.167231
O	0.865141	-0.312777	-0.727664
O	-0.547401	0.593865	0.803912
H	-1.01082	-1.0557	-0.382647
H	-1.44822	0.460911	1.16372
C	5.60648	0.275219	-1.38938
O	6.31509	0.482735	-2.3663
O	5.22335	-0.982333	-1.01165
H	5.221	1.07278	-0.738323
H	4.65441	-0.985987	-0.205226
C	3.26984	0.196396	1.90998
O	3.68085	1.25221	1.4668
O	3.59196	-1.00406	1.2954
H	2.63411	0.0899402	2.79644
H	3.21764	-1.80153	1.72071
