15
  This energy is -0.00433159 and Call times are: 14058
C	0.129362	0.220396	-0.339384
O	-0.360288	-0.810022	-0.768016
O	0.189667	0.495608	1.00846
H	0.558413	1.00714	-0.978013
H	0.609175	1.35863	1.20293
C	3.33198	1.35123	-1.05899
O	3.14216	2.31181	-1.79439
O	3.49686	0.0800147	-1.53621
H	3.38575	1.42632	0.036473
H	3.64085	-0.584544	-0.820907
C	3.9239	-1.41818	1.82751
O	3.76335	-0.247201	2.1158
O	3.90774	-1.83128	0.504006
H	4.08955	-2.22744	2.54788
H	4.04514	-2.79008	0.36687
