15
  This energy is 0.00041373 and Call times are: 12299
C	-0.073613	-0.412471	0.0702805
O	0.424686	-0.33902	-1.03947
O	-0.301031	0.703126	0.844744
H	-0.380203	-1.35759	0.543209
H	-0.705798	0.490173	1.71044
C	8.68538	-0.764429	-1.01471
O	9.51691	-1.29512	-1.74031
O	8.49713	-1.14036	0.286878
H	8.02528	0.0511781	-1.34279
H	7.79218	-0.619412	0.740411
C	5.80556	1.3346	0.896468
O	6.07431	1.56864	-0.266751
O	6.47908	0.343688	1.59434
H	5.04146	1.85646	1.48391
H	6.19685	0.225621	2.52353
