15
  This energy is 0.000773548 and Call times are: 22185
C	0.277691	0.275458	0.165834
O	0.927171	-0.69408	-0.185476
O	-1.08778	0.339607	0.000173775
H	0.715307	1.16828	0.637285
H	-1.47274	1.17762	0.32903
C	7.02382	-0.20104	0.70309
O	5.90847	-0.331897	1.19141
O	8.07248	-1.01437	1.03429
H	7.27633	0.572914	-0.0356969
H	8.90492	-0.783607	0.556985
C	10.4653	0.698022	-1.22046
O	9.45467	1.34411	-1.42383
O	10.4618	-0.360847	-0.325272
H	11.4346	0.877016	-1.69959
H	11.3184	-0.822618	-0.225445
