15
  This energy is 0.000149125 and Call times are: 14437
C	-0.131553	0.375775	0.148247
O	-0.277495	-0.420501	1.05923
O	0.373141	0.000586286	-1.07674
H	-0.384846	1.44413	0.221479
H	0.433244	0.745921	-1.70877
C	14.5887	-0.160311	1.53994
O	15.1557	-0.267349	2.62
O	13.3173	-0.617958	1.32745
H	15.0471	0.307703	0.657095
H	12.999	-0.458242	0.407026
C	13.2294	0.464105	-2.21697
O	14.346	0.823438	-1.89425
O	12.3967	-0.16758	-1.30581
H	12.788	0.595706	-3.21152
H	11.518	-0.420888	-1.65302
