15
  This energy is -0.000297511 and Call times are: 21555
C	-0.00680371	0.38039	0.18907
O	-0.67229	0.491808	-0.825799
O	0.597673	-0.80593	0.540243
H	0.167117	1.20107	0.901205
H	1.09812	-0.744965	1.37955
C	14.7523	0.759814	0.790799
O	13.7938	1.28833	1.33998
O	16.0458	1.0488	1.12874
H	14.6574	0.0154435	-0.012618
H	16.7053	0.542127	0.597432
C	17.5021	-1.28541	-1.35561
O	16.3133	-1.44876	-1.55564
O	17.9427	-0.395102	-0.388229
H	18.3078	-1.79917	-1.89246
H	18.9144	-0.328799	-0.297028
