15
  This energy is 5.9277e-05 and Call times are: 25421
C	0.256479	0.258593	0.21872
O	-0.344681	0.96375	-0.572866
O	0.0511008	-1.10118	0.288776
H	1.00206	0.637591	0.933823
H	0.603416	-1.53551	0.970619
C	15.9544	-0.1322	-1.64438
O	15.5809	-0.218217	-2.80742
O	15.2421	-0.657827	-0.601657
H	16.8843	0.369392	-1.34069
H	15.6725	-0.507586	0.273675
C	17.6683	0.454445	1.97092
O	18.1987	0.871639	0.958659
O	16.4647	-0.231311	1.90986
H	18.0667	0.5716	2.98524
H	16.1127	-0.529342	2.77256
