15
  This energy is -0.00212119 and Call times are: 10005
C	0.123793	-0.406316	0.00854976
O	1.13546	0.261367	0.134918
O	-1.11974	0.169299	-0.126999
H	0.113612	-1.50655	-0.00821339
H	-1.83721	-0.490488	-0.219262
C	6.42656	-0.389617	-1.60936
O	6.79527	-0.677518	-2.74106
O	6.43079	0.894431	-1.13808
H	6.06415	-1.12997	-0.881959
H	6.10525	0.965095	-0.209073
C	5.10438	-0.0368935	2.19581
O	5.15151	-1.12543	1.65456
O	5.50245	1.10781	1.52218
H	4.7598	0.14282	3.22062
H	5.43025	1.93753	2.03535
