15
  This energy is 7.7036e-05 and Call times are: 21471
C	-0.230575	-0.172794	-0.312198
O	0.176657	0.893676	-0.73887
O	0.0711636	-0.615897	0.956141
H	-0.862991	-0.863127	-0.890468
H	-0.324674	-1.488	1.15951
C	15.9484	0.644532	-1.57482
O	15.7113	1.10728	-2.68353
O	15.1738	-0.325929	-1.00118
H	16.795	0.965343	-0.95117
H	15.493	-0.595379	-0.107004
C	17.2063	-0.499691	2.094
O	17.8065	0.356643	1.47228
O	16.0777	-1.10334	1.56063
H	17.4815	-0.86444	3.09025
H	15.6605	-1.78013	2.13062
