15
  This energy is 0.000781291 and Call times are: 6018
C	0.331869	0.0804959	0.252733
O	-0.589129	-0.230807	0.987648
O	0.191945	0.123837	-1.11643
H	1.33729	0.349355	0.610141
H	1.0148	0.38988	-1.5755
C	6.53604	-1.7255	0.19406
O	6.48705	-2.93988	0.343906
O	6.91859	-1.1439	-0.98335
H	6.27967	-1.00528	0.984078
H	6.9069	-0.157682	-0.947734
C	6.51029	2.31725	0.279691
O	6.19074	1.67458	1.26201
O	6.89074	1.68014	-0.891594
H	6.52972	3.41157	0.221615
H	7.13067	2.2763	-1.62916
