15
  This energy is 0.000260917 and Call times are: 7469
C	-0.351723	-0.180813	-0.155202
O	0.586993	-0.773524	-0.657946
O	-0.170567	0.857566	0.730812
H	-1.40667	-0.417487	-0.360065
H	-1.01439	1.23659	1.0516
C	13.0156	1.01397	0.584209
O	12.1072	1.71904	1.00533
O	13.8046	1.38198	-0.470784
H	13.273	0.0348447	1.01274
H	14.4921	0.709075	-0.691058
C	15.852	-1.70653	-0.367465
O	15.0824	-1.90968	0.552606
O	15.7754	-0.538904	-1.11134
H	16.6458	-2.39107	-0.687797
H	16.4338	-0.461275	-1.83073
