15
  This energy is -0.00317928 and Call times are: 5872
C	-0.217465	0.302496	-0.204196
O	0.349326	0.855893	0.72195
O	-0.0935019	-1.04948	-0.434097
H	-0.865857	0.823004	-0.925003
H	-0.604947	-1.35234	-1.21211
C	4.80889	1.37841	-0.681762
O	5.37602	2.35709	-1.15092
O	4.69567	0.19698	-1.3617
H	4.34663	1.3645	0.315581
H	4.21286	-0.496466	-0.851739
C	2.8364	-1.50285	1.35772
O	3.00744	-0.402865	1.84849
O	3.31282	-1.79506	0.0887789
H	2.3141	-2.33515	1.84329
H	3.12935	-2.70351	-0.224329
