15
  This energy is -0.000601691 and Call times are: 25379
C	-0.225763	0.107668	-0.343409
O	0.911171	0.496618	-0.546746
O	-0.579254	-0.542307	0.817904
H	-1.05481	0.238363	-1.0551
H	-1.52484	-0.795219	0.840538
C	16.3343	0.100192	0.0334517
O	17.5561	0.174181	0.0703536
O	15.6494	-0.201404	-1.11142
H	15.6891	0.26789	0.907585
H	14.6714	-0.223956	-0.980815
C	12.3197	-0.00459426	0.505979
O	13.0478	0.251653	1.44631
O	12.8478	-0.266472	-0.749045
H	11.2256	-0.0525015	0.551036
H	12.188	-0.462446	-1.44423
