15
  This energy is -0.0105767 and Call times are: 2923
C	0.296457	-0.288976	0.0953761
O	-0.720319	-0.912773	-0.154206
O	0.34205	1.08621	0.0418849
H	1.24976	-0.75918	0.380033
H	1.22379	1.44744	0.266952
C	3.92277	-0.752943	1.35945
O	3.3853	-1.29268	2.3183
O	3.36696	0.313754	0.708189
H	4.88795	-1.07529	0.943421
H	3.9194	0.637238	-0.0429356
C	6.14127	0.616258	-1.73174
O	6.52124	-0.329333	-1.06724
O	4.93982	1.24666	-1.44591
H	6.68201	1.04627	-2.5826
H	4.71513	1.99691	-2.0321
