15
  This energy is -0.00296817 and Call times are: 20295
C	0.143349	0.0174804	-0.399545
O	0.321686	-1.12774	-0.0228226
O	-0.423574	0.974193	0.412471
H	0.413864	0.38218	-1.4019
H	-0.503663	1.84654	-0.0247913
C	7.23976	1.0747	0.262983
O	8.18698	1.82541	0.459955
O	6.4085	1.20568	-0.815324
H	6.97816	0.239573	0.928334
H	5.69323	0.525954	-0.835386
C	4.28539	-1.68306	0.127642
O	5.09531	-1.68663	1.03544
O	4.35531	-0.734539	-0.881316
H	3.45792	-2.39348	0.0186987
H	3.66338	-0.808332	-1.56889
