15
  This energy is 8.6513e-05 and Call times are: 23907
C	0.413222	0.0228621	-0.0959979
O	-0.188649	0.396885	-1.08751
O	-0.240005	-0.371344	1.05029
H	1.51022	-0.0322274	-0.0292639
H	0.37267	-0.645348	1.76314
C	23.9062	-0.87705	-0.52203
O	24.9037	-1.49164	-0.878295
O	22.7828	-0.784391	-1.29682
H	23.8279	-0.352223	0.440776
H	22.0645	-0.256865	-0.872723
C	20.9271	1.2763	1.16314
O	21.9822	1.11552	1.74698
O	20.7205	0.726017	-0.0926806
H	20.0732	1.84437	1.5498
H	19.8431	0.906772	-0.485711
