15
  This energy is -6.084e-05 and Call times are: 23991
C	-0.00714639	-0.219963	-0.363394
O	0.986781	0.483732	-0.409951
O	-0.860432	-0.2092	0.71728
H	-0.305685	-0.912869	-1.16443
H	-1.61448	-0.82508	0.613772
C	22.2177	-0.948313	-1.45363
O	22.1524	-1.62619	-2.47137
O	22.8893	0.242214	-1.40392
H	21.7474	-1.23457	-0.502086
H	22.8509	0.66962	-0.515171
C	22.0974	0.850428	2.16603
O	21.5396	-0.215423	1.98487
O	22.7873	1.47358	1.13728
H	22.112	1.40095	3.11366
H	23.2042	2.32632	1.37406
