15
  This energy is 4.3346e-05 and Call times are: 8183
C	0.00173298	-0.0261054	0.424035
O	0.75651	-0.896011	0.0255096
O	-0.666728	0.813297	-0.438887
H	-0.208931	0.162671	1.48747
H	-1.23661	1.4609	0.0242062
C	11.2238	-1.42812	0.768381
O	11.6616	-2.44163	1.29823
O	11.0986	-0.242387	1.43864
H	10.8971	-1.38373	-0.280368
H	10.7314	0.481081	0.87667
C	9.7211	1.57566	-1.4835
O	9.88415	0.467324	-1.95795
O	10.046	1.83562	-0.16083
H	9.32052	2.44021	-2.02514
H	9.88153	2.75375	0.134101
