15
  This energy is -0.00515064 and Call times are: 20715
C	0.199659	0.296863	-0.229127
O	-0.772826	-0.0408643	-0.881398
O	0.483276	-0.255638	0.999846
H	0.923474	1.05805	-0.557129
H	1.29459	0.112955	1.40545
C	4.19913	0.394563	-1.5402
O	3.71778	0.673151	-2.63119
O	3.43237	0.211037	-0.422483
H	5.27737	0.269171	-1.36629
H	3.96525	-0.00843623	0.378701
C	6.32861	-0.505508	1.77749
O	6.88846	-0.317467	0.713871
O	4.94861	-0.415782	1.87806
H	6.83173	-0.752809	2.71929
H	4.58593	-0.582427	2.77118
