15
  This energy is 0.000828948 and Call times are: 14311
C	0.181002	-0.325548	0.204322
O	-0.612445	0.169183	0.985942
O	0.360613	0.171009	-1.06739
H	0.812118	-1.19564	0.439976
H	1.02947	-0.327212	-1.58023
C	13.7936	0.0828931	0.37956
O	14.99	0.134005	0.635749
O	12.843	0.642509	1.18833
H	13.3842	-0.411727	-0.512811
H	11.9252	0.518155	0.847467
C	10.0102	-0.396671	-0.965009
O	10.9518	-0.846447	-1.59044
O	10.2109	0.2903	0.222566
H	8.95832	-0.48357	-1.2605
H	9.39681	0.615842	0.656369
