15
  This energy is -0.0115049 and Call times are: 20589
C	-0.167135	0.389965	0.0219986
O	0.321816	0.290491	-1.08988
O	-0.11875	-0.638362	0.936478
H	-0.680624	1.29205	0.387346
H	-0.552138	-0.414327	1.78535
C	6.82764	-0.521837	0.312379
O	7.97838	-0.876563	0.534942
O	5.84301	-1.40045	-0.0473956
H	6.48976	0.522008	0.381634
H	4.97011	-0.96314	-0.191736
C	3.226	1.2132	-0.295658
O	4.18902	1.88187	0.0292444
O	3.33969	-0.158246	-0.465328
H	2.21923	1.60579	-0.478872
H	2.51445	-0.613829	-0.726863
