15
  This energy is 0.000945313 and Call times are: 16641
C	-0.305614	-0.0144738	-0.294756
O	-0.820094	-0.378374	0.748379
O	1.02108	0.346833	-0.368387
H	-0.84417	0.0565328	-1.25174
H	1.29333	0.616379	-1.2694
C	9.29571	0.54237	1.13808
O	10.1447	0.931619	1.93011
O	8.27931	-0.297459	1.50211
H	9.27695	0.830908	0.0774324
H	7.67647	-0.520248	0.753134
C	6.79217	-0.40895	-1.89164
O	7.73938	0.33102	-2.07961
O	6.5483	-0.943597	-0.635751
H	6.06969	-0.714498	-2.65711
H	5.76539	-1.52731	-0.578141
