15
  This energy is -0.0065387 and Call times are: 511
C	0.383048	0.0151466	-0.183126
O	-0.0455206	1.15596	-0.193563
O	-0.336191	-1.03105	0.350011
H	1.36318	-0.275193	-0.590497
H	0.133966	-1.88762	0.288001
C	3.6588	-1.04782	0.786674
O	2.84465	-1.78171	1.33268
O	4.96588	-0.974627	1.18303
H	3.41261	-0.391346	-0.0600845
H	5.49657	-0.33927	0.645706
C	5.88437	1.54308	-1.37804
O	4.70443	1.38177	-1.62664
O	6.49404	0.843586	-0.347712
H	6.5542	2.22396	-1.91563
H	7.44454	1.03688	-0.220496
