15
  This energy is 0.000409111 and Call times are: 18366
C	-0.0756191	0.0612504	-0.413546
O	0.191473	-1.12107	-0.286942
O	-0.09405	0.925343	0.658402
H	-0.320982	0.534573	-1.37618
H	-0.324805	1.84244	0.404859
C	4.48802	-1.70267	-0.335098
O	4.54071	-2.90109	-0.581239
O	5.22022	-1.1236	0.664639
H	3.85468	-0.995972	-0.890104
H	5.06986	-0.15101	0.738736
C	3.91172	2.28411	0.0189689
O	3.32116	1.64577	-0.83182
O	4.7955	1.6611	0.886931
H	3.81137	3.36365	0.179635
H	5.2244	2.25246	1.53756
