15
  This energy is 0.000163452 and Call times are: 23403
C	-0.343191	0.248997	0.0266627
O	0.590192	0.982713	-0.248481
O	-0.181759	-1.10842	0.192245
H	-1.37751	0.598373	0.164617
H	-1.0183	-1.56801	0.410408
C	18.0737	-0.000528571	-0.611829
O	16.928	-0.0146241	-1.04391
O	18.7305	1.15936	-0.305005
H	18.6673	-0.908807	-0.434982
H	19.6455	1.0066	0.0320158
C	21.8311	-0.562847	0.772949
O	21.1364	-1.51223	0.462998
O	21.3523	0.733427	0.65899
H	22.8562	-0.630307	1.15511
H	21.9798	1.43296	0.930897
