15
  This energy is 0.00010749 and Call times are: 22941
C	0.157	0.387853	0.0735607
O	-0.719316	0.527242	-0.761836
O	0.478134	-0.844409	0.597461
H	0.75789	1.21731	0.475853
H	1.20047	-0.801739	1.25702
C	19.6922	-1.45808	0.311648
O	20.3327	-2.47855	0.530612
O	18.328	-1.45233	0.21201
H	20.1528	-0.468932	0.177623
H	17.9584	-0.554764	0.0338075
C	18.1186	2.19418	-0.420963
O	19.3213	2.0487	-0.309037
O	17.2592	1.11273	-0.300383
H	17.6149	3.14729	-0.618906
H	16.3097	1.32356	-0.404947
