15
  This energy is 0.00025607 and Call times are: 14269
C	0.254992	-0.171449	-0.293385
O	0.283405	1.03281	-0.478305
O	-0.49957	-0.739527	0.70861
H	0.818283	-0.897935	-0.89822
H	-0.423726	-1.71527	0.736411
C	8.9123	0.726188	0.913016
O	8.0016	1.22564	1.56166
O	9.70526	1.45839	0.0727814
H	9.1688	-0.342205	0.949287
H	10.3943	0.914539	-0.378306
C	11.755	-1.44995	-0.967226
O	10.9818	-1.97904	-0.191136
O	11.6804	-0.0897429	-1.22579
H	12.5507	-1.96761	-1.51512
H	12.3417	0.248478	-1.86246
