15
  This energy is -0.000835283 and Call times are: 6545
C	-0.261915	-0.237914	-0.235134
O	0.101432	0.67898	-0.951047
O	0.168071	-0.363207	1.06697
H	-0.952078	-1.03164	-0.558508
H	-0.206555	-1.1471	1.51839
C	9.42408	-0.96384	1.40893
O	9.65003	-1.65451	2.39458
O	9.46934	0.40283	1.44163
H	9.16807	-1.37766	0.42314
H	9.26435	0.81623	0.569216
C	8.58989	0.78813	-2.13883
O	8.58443	-0.42353	-2.02958
O	8.88173	1.59688	-1.05102
H	8.37535	1.3385	-3.06205
H	8.86278	2.55813	-1.23168
