15
  This energy is -0.000235818 and Call times are: 21681
C	-0.19227	-0.216162	-0.311122
O	-0.459836	-0.799045	0.72517
O	0.593064	0.914718	-0.33191
H	-0.547038	-0.534837	-1.30283
H	0.721938	1.27282	-1.234
C	15.4295	-0.324627	-0.508323
O	16.5737	-0.553833	-0.879651
O	15.099	-0.178585	0.810904
H	14.578	-0.217525	-1.19539
H	14.1389	0.00275718	0.949929
C	11.5054	0.41835	0.124833
O	11.9333	0.267744	-1.00401
O	12.3515	0.33889	1.22041
H	10.4591	0.62211	0.380109
H	11.9204	0.472982	2.08825
