15
  This energy is -0.00408328 and Call times are: 20925
C	-0.296842	0.224789	-0.20456
O	-0.127056	0.779436	0.867254
O	0.403232	-0.905954	-0.561471
H	-1.01025	0.570822	-0.96759
H	0.161588	-1.23942	-1.44974
C	5.29879	-0.851779	-1.48469
O	5.51433	-1.46272	-2.52386
O	4.77938	0.413471	-1.46879
H	5.5018	-1.26261	-0.485403
H	4.66326	0.770994	-0.556256
C	4.80202	0.668499	2.22932
O	5.25574	-0.449429	2.07292
O	4.44478	1.44767	1.13943
H	4.63698	1.15151	3.19924
H	4.0892	2.33187	1.3602
