15
  This energy is 0.00243366 and Call times are: 19874
C	0.112549	-0.255377	-0.320322
O	-0.986262	0.187196	-0.606662
O	0.756456	0.0862572	0.847899
H	0.677079	-0.953412	-0.956684
H	1.63001	-0.345761	0.942088
C	7.35731	1.2054	-0.996288
O	7.88738	2.04785	-1.70965
O	7.37084	1.28314	0.369244
H	6.8304	0.323247	-1.3871
H	6.90197	0.530654	0.802787
C	5.45219	-1.8539	0.837574
O	5.51402	-1.80096	-0.376286
O	6.03276	-0.868001	1.62085
H	4.95617	-2.64665	1.40923
H	5.93333	-0.99266	2.58602
