15
  This energy is -0.00835997 and Call times are: 20042
C	0.202432	-0.359044	-0.102953
O	0.324624	-0.232163	1.10296
O	-0.484185	0.556718	-0.868463
H	0.621296	-1.19963	-0.676424
H	-0.499283	0.323771	-1.81931
C	3.66881	-0.0818834	-1.22335
O	2.8107	-0.13765	-2.09519
O	3.37328	-0.185473	0.108127
H	4.73935	0.0547706	-1.43276
H	4.1708	-0.122001	0.686021
C	6.89871	0.173523	1.19624
O	7.02172	0.250119	-0.0116874
O	5.64975	-0.00282843	1.77206
H	7.72107	0.233101	1.91836
H	5.64664	-0.0534969	2.749
