15
  This energy is -0.0106112 and Call times are: 17020
C	-0.173843	-0.264316	0.28356
O	-1.05437	0.51202	-0.0438766
O	1.09761	-0.190507	-0.239925
H	-0.313086	-1.07725	1.01202
H	1.69685	-0.878225	0.115818
C	5.51917	0.329831	1.3199
O	4.7608	0.575608	2.24944
O	5.70913	-0.936867	0.84001
H	6.10666	1.09741	0.7962
H	6.34941	-0.972823	0.0898199
C	8.13607	0.118595	-1.75567
O	7.87599	1.18723	-1.2356
O	7.5425	-1.05146	-1.30708
H	8.83171	-0.023033	-2.59072
H	7.8109	-1.86225	-1.78411
