15
  This energy is -0.000621909 and Call times are: 16893
C	0.127869	-0.143102	-0.379027
O	0.353263	1.05456	-0.372685
O	-0.436128	-0.78649	0.699875
H	0.35032	-0.804195	-1.23013
H	-0.557704	-1.74643	0.550413
C	6.30101	-1.49547	0.862018
O	6.14712	-2.54767	1.46928
O	7.53685	-1.00255	0.54481
H	5.46848	-0.862684	0.522836
H	7.49635	-0.146656	0.0550794
C	6.19928	2.01365	-1.14486
O	5.16857	1.46564	-0.802226
O	7.43239	1.44928	-0.855893
H	6.25716	2.96273	-1.69001
H	8.20595	1.95932	-1.16966
