15
  This energy is 0.00131478 and Call times are: 14227
C	-0.284789	-0.150628	0.276942
O	0.64362	-0.940121	0.278782
O	-0.286085	0.97437	-0.517065
H	-1.18683	-0.263729	0.896972
H	-1.09657	1.51366	-0.412757
C	6.80771	0.827206	0.328505
O	5.75483	1.40324	0.571836
O	7.51958	1.0479	-0.818423
H	7.26712	0.0908417	1.00325
H	8.34526	0.509671	-0.869158
C	10.2027	-1.35348	0.0624535
O	9.47604	-1.45402	1.03302
O	9.88487	-0.490037	-0.97487
H	11.1369	-1.90729	-0.0853018
H	10.5263	-0.474725	-1.7133
