15
  This energy is -0.000854329 and Call times are: 1723
C	-0.308808	-0.115862	0.267776
O	0.72062	-0.101132	0.91993
O	-0.330184	0.202695	-1.07168
H	-1.29338	-0.379667	0.682414
H	-1.2262	0.147334	-1.46244
C	6.78551	0.964257	1.21338
O	7.33799	1.65486	2.06038
O	6.57339	-0.376604	1.38071
H	6.41613	1.35762	0.255573
H	6.11691	-0.79356	0.611427
C	4.91935	-0.801267	-1.90948
O	5.16858	0.389356	-1.92912
O	5.26873	-1.58095	-0.817415
H	4.41808	-1.35341	-2.71269
H	5.02922	-2.52671	-0.889166
