15
  This energy is -0.00134941 and Call times are: 5444
C	-0.390257	-0.111811	-0.125252
O	0.243668	0.111089	-1.14196
O	0.169086	0.0121587	1.12688
H	-1.44492	-0.425708	-0.116906
H	-0.459056	-0.199004	1.84761
C	4.61679	-1.49846	-0.77461
O	4.90561	-2.5614	-1.30968
O	4.88054	-0.287448	-1.35323
H	4.12589	-1.42602	0.206382
H	4.5884	0.475837	-0.799981
C	3.44367	1.6693	1.44822
O	3.2678	0.533411	1.84685
O	4.04994	1.90519	0.223735
H	3.15569	2.57836	1.98855
H	4.14984	2.84861	-0.014938
