15
  This energy is 0.00343759 and Call times are: 12828
C	-0.367377	-0.167962	-0.13158
O	0.158321	0.317967	-1.11787
O	0.221641	-0.114554	1.11191
H	-1.34	-0.682445	-0.146061
H	-0.315959	-0.545974	1.80723
C	5.34886	1.12232	-0.440614
O	4.46988	1.92071	-0.739894
O	5.62128	0.0117724	-1.19119
H	5.98823	1.22765	0.447462
H	6.3565	-0.532732	-0.821068
C	8.35289	-1.15128	1.02852
O	8.00927	-0.1338	1.60013
O	7.72367	-1.55576	-0.138977
H	9.15511	-1.82024	1.36051
H	8.06581	-2.38517	-0.528842
