15
  This energy is -0.00316445 and Call times are: 11370
C	-0.0638092	0.261106	0.329002
O	0.370038	0.952356	-0.576093
O	-0.262621	-1.09363	0.183301
H	-0.33011	0.649687	1.32348
H	-0.61492	-1.51649	0.993041
C	3.52404	-1.5543	0.613766
O	3.19843	-2.64886	1.05591
O	2.91117	-0.985712	-0.46882
H	4.32829	-0.940422	1.04377
H	3.28482	-0.102958	-0.703677
C	5.01484	2.06571	-0.398596
O	5.47029	1.45035	0.546906
O	3.97498	1.54153	-1.15126
H	5.36189	3.04885	-0.736644
H	3.6732	2.10542	-1.89148
