15
  This energy is -0.00110574 and Call times are: 20505
C	0.0110378	0.383095	-0.183321
O	0.599089	-0.372892	-0.93693
O	-0.537483	-0.0484546	1.00367
H	-0.131383	1.4564	-0.379881
H	-0.977778	0.66922	1.50336
C	8.78386	-1.04705	0.0879684
O	9.76622	-1.77497	0.15624
O	7.61456	-1.44197	-0.501669
H	8.75674	-0.0242772	0.490189
H	6.91614	-0.745074	-0.47749
C	5.88304	1.76946	0.154152
O	6.97362	1.99146	0.64549
O	5.60846	0.547031	-0.439855
H	5.04647	2.47721	0.131117
H	4.70655	0.457867	-0.80807
