15
  This energy is -0.00513662 and Call times are: 17610
C	-0.410762	-0.101216	-0.0389937
O	-0.226722	0.128601	1.14361
O	0.60273	-0.0136411	-0.96702
H	-1.38348	-0.39334	-0.462526
H	0.306836	-0.225996	-1.87584
C	7.54942	-0.0628698	-1.09281
O	8.50113	-0.120806	-1.86123
O	6.94125	1.11675	-0.761839
H	7.1061	-0.944139	-0.607621
H	6.18982	0.999754	-0.132807
C	4.46219	-0.478514	1.48559
O	5.0901	-1.45008	1.10895
O	4.78938	0.793338	1.04072
H	3.61534	-0.506363	2.18082
H	4.2308	1.51364	1.39587
