15
  This energy is 6.4212e-05 and Call times are: 25463
C	-0.241759	-0.253248	0.240643
O	-0.546709	0.88952	0.534469
O	0.718036	-0.533227	-0.706181
H	-0.696793	-1.14554	0.696339
H	0.856279	-1.49371	-0.836435
C	17.549	1.40322	-0.570872
O	16.9378	2.3846	-0.974534
O	18.8763	1.44598	-0.243359
H	17.089	0.413583	-0.43814
H	19.2253	0.576063	0.0657055
C	19.0372	-2.13502	0.701184
O	17.8685	-2.03442	0.378258
O	19.8863	-1.04049	0.640906
H	19.516	-3.05509	1.05536
H	20.8078	-1.21434	0.919462
