15
  This energy is -0.00073303 and Call times are: 16075
C	-0.189528	0.183974	0.332751
O	0.785675	0.867733	0.0744891
O	-0.504521	-0.943486	-0.392289
H	-0.891414	0.40185	1.15177
H	-1.31402	-1.39013	-0.0700614
C	8.41582	-1.12121	-1.22308
O	8.77784	-1.92174	-2.07612
O	8.35138	0.224918	-1.45693
H	8.11451	-1.41172	-0.206522
H	8.04152	0.737928	-0.672818
C	7.15393	1.03522	1.95644
O	7.25622	-0.174853	2.02962
O	7.46723	1.70364	0.782717
H	6.82038	1.68969	2.76988
H	7.35515	2.67489	0.815718
