15
  This energy is -0.00780515 and Call times are: 4776
C	-0.0899507	-0.411203	0.057548
O	-0.833644	0.207739	0.798546
O	0.821176	0.221241	-0.758499
H	-0.0801099	-1.50853	-0.0241318
H	1.34901	-0.403568	-1.29666
C	4.31866	-1.53022	-0.542949
O	4.75128	-2.61425	-0.913487
O	4.36773	-0.410871	-1.32752
H	3.85837	-1.3644	0.441535
H	3.97957	0.383943	-0.889763
C	2.74383	1.76166	1.19926
O	2.76316	0.697663	1.78885
O	3.26072	1.8715	-0.0826655
H	2.3364	2.69685	1.60015
H	3.20246	2.7642	-0.478494
