15
  This energy is -0.00212269 and Call times are: 5028
C	0.0310757	0.278005	-0.319747
O	-0.0189721	-0.826787	-0.831779
O	-0.0138432	0.453766	1.04523
H	0.114935	1.21498	-0.89067
H	0.0358532	1.39499	1.31024
C	5.05863	0.862423	-1.25197
O	4.4691	1.46039	-2.1433
O	5.14435	1.34362	0.0255245
H	5.56457	-0.102372	-1.39951
H	5.65081	0.748542	0.62836
C	7.1259	-1.53337	1.26565
O	6.97424	-1.84406	0.0992236
O	6.5945	-0.351771	1.75962
H	7.67105	-2.12546	2.00965
H	6.766	-0.18419	2.70803
