15
  This energy is -0.000334662 and Call times are: 25085
C	0.218604	-0.0445351	-0.361552
O	0.448319	-1.04123	0.301082
O	-0.608804	0.959052	0.0904216
H	0.64314	0.138985	-1.36005
H	-0.699008	1.69546	-0.548461
C	13.2793	1.60004	-0.677159
O	13.2606	2.72247	-1.16644
O	13.6598	1.36686	0.615807
H	12.9951	0.692409	-1.2285
H	13.6217	0.412029	0.862539
C	13.1461	-2.29751	0.392056
O	12.8324	-1.95209	-0.7315
O	13.5565	-1.36455	1.33212
H	13.1373	-3.33015	0.759279
H	13.789	-1.73278	2.20808
