15
  This energy is -0.00567379 and Call times are: 6293
C	0.156677	0.206732	-0.336459
O	0.930545	-0.70613	-0.106115
O	-0.971894	0.417699	0.423732
H	0.287776	0.929446	-1.15585
H	-1.49706	1.18664	0.121197
C	6.88822	0.596482	-1.11869
O	7.71606	1.02489	-1.91286
O	7.19071	-0.350316	-0.179018
H	5.84163	0.931923	-1.09228
H	6.41898	-0.592369	0.38655
C	3.76273	-0.438516	1.22907
O	3.62998	0.394212	0.352128
O	4.9872	-1.05234	1.44459
H	2.96807	-0.773197	1.90567
H	5.00056	-1.70824	2.17026
