15
  This energy is -0.000359793 and Call times are: 4026
C	0.220284	-0.362009	0.0302505
O	0.931432	0.420563	-0.575635
O	-1.03514	-0.0141614	0.476314
H	0.511736	-1.39562	0.270257
H	-1.48863	-0.743884	0.945848
C	4.68938	1.63523	-0.587391
O	4.66908	2.78584	-1.00602
O	5.7845	1.09544	0.0292495
H	3.83863	0.943862	-0.669914
H	5.64632	0.15952	0.310303
C	4.18377	-2.20149	0.585565
O	3.28634	-1.60167	0.0243883
O	5.40027	-1.58515	0.83621
H	4.12669	-3.23922	0.933636
H	6.06222	-2.1433	1.29148
