15
  This energy is -0.00108745 and Call times are: 18954
C	-0.284514	-0.268263	0.166063
O	-0.235309	0.687248	0.920931
O	0.486286	-0.340668	-0.972661
H	-0.936022	-1.14097	0.323596
H	0.340501	-1.16534	-1.47988
C	3.92528	-0.82594	0.402662
O	2.8924	-1.41431	0.696854
O	4.00732	0.0305098	-0.660666
H	4.86588	-0.933802	0.961428
H	4.90479	0.426793	-0.768027
C	7.5821	0.828439	-0.0898788
O	7.37245	0.0479138	0.819468
O	6.57375	1.16927	-0.978496
H	8.54162	1.31848	-0.29101
H	6.83302	1.8031	-1.67708
