15
  This energy is 3.5693e-05 and Call times are: 24327
C	-0.191726	0.233896	0.298369
O	-0.928092	0.249096	-0.672599
O	1.00416	-0.448692	0.298222
H	-0.412019	0.753675	1.24294
H	1.48761	-0.370905	1.14606
C	26.7883	0.853675	-0.794121
O	27.7029	1.44341	-1.35563
O	25.6983	1.5026	-0.282618
H	26.7642	-0.236433	-0.65393
H	25.0482	0.891015	0.138525
C	24.0885	-1.60162	0.947802
O	25.1049	-2.05031	0.452214
O	23.8313	-0.239256	0.927644
H	23.3097	-2.19778	1.43716
H	22.9908	0.0306506	1.34919
