15
  This energy is -0.00536705 and Call times are: 8905
C	-0.252056	0.251454	0.231795
O	-0.257935	-0.836744	0.780462
O	0.474298	0.488595	-0.913737
H	-0.815177	1.12422	0.595227
H	0.382534	1.40714	-1.24001
C	5.19097	0.662867	-1.264
O	5.89744	1.1189	-2.15423
O	4.1096	1.33554	-0.76495
H	5.36262	-0.315918	-0.793801
H	3.64144	0.838152	-0.0525824
C	3.23224	-1.32572	1.66187
O	4.21284	-1.81238	1.13115
O	2.76299	-0.0789853	1.27714
H	2.64743	-1.79851	2.45922
H	1.97002	0.232434	1.75798
