15
  This energy is 0.000652816 and Call times are: 15613
C	0.108503	-0.247185	-0.32805
O	1.14258	0.253109	0.0789223
O	-1.11098	0.0202688	0.252813
H	0.0576904	-0.94327	-1.17881
H	-1.85123	-0.452249	-0.180032
C	10.031	1.2095	-0.785605
O	9.35871	2.06517	-1.34729
O	9.54312	0.444713	0.23812
H	11.0734	0.984206	-1.05241
H	10.2042	-0.199899	0.586567
C	12.6971	-1.45089	0.686104
O	13.0027	-0.708319	-0.227834
O	11.429	-1.40314	1.2448
H	13.3593	-2.1971	1.13996
H	11.2727	-2.03626	1.97398
