15
  This energy is -0.00343943 and Call times are: 9417
C	0.375606	0.0231295	-0.197168
O	-0.191149	1.07926	-0.417677
O	-0.200864	-0.971462	0.560815
H	1.37834	-0.22525	-0.576291
H	0.370908	-1.76097	0.65224
C	6.52721	-1.54304	0.202285
O	5.99458	-2.63677	0.342427
O	5.83252	-0.368517	0.296109
H	7.59807	-1.41163	-0.00876845
H	6.40037	0.427083	0.159748
C	8.80201	1.75422	-0.350193
O	9.29599	0.643896	-0.407171
O	7.44878	1.91603	-0.094929
H	9.34795	2.69456	-0.487932
H	7.13976	2.84378	-0.067274
