15
  This energy is -0.0153739 and Call times are: 13794
C	0.0944365	-0.413569	0.0230762
O	-0.114373	-0.176388	-1.15395
O	0.00779239	0.56124	0.99174
H	0.365397	-1.40769	0.409356
H	0.201673	0.224102	1.89027
C	4.60683	-0.816499	1.40861
O	5.04639	-1.39423	2.39482
O	3.33983	-0.30343	1.35981
H	5.18594	-0.661767	0.48706
H	3.13341	0.132417	0.498736
C	3.70141	0.981096	-2.09863
O	4.7971	0.482557	-1.92254
O	2.73757	0.945043	-1.10249
H	3.37867	1.48504	-3.01687
H	1.88717	1.37044	-1.33234
