15
  This energy is 0.000403072 and Call times are: 6419
C	-0.353641	0.0257603	-0.234019
O	0.189928	-1.01798	-0.550847
O	0.180364	0.869578	0.714073
H	-1.30057	0.380168	-0.668335
H	-0.365498	1.66838	0.864243
C	10.6321	-1.00176	1.19412
O	10.0823	-1.6975	2.03863
O	11.703	-1.43875	0.463888
H	10.3163	0.0231017	0.952236
H	12.0343	-0.764205	-0.175821
C	12.0365	1.72167	-1.44451
O	11.0857	1.98248	-0.731713
O	12.6611	0.486	-1.3696
H	12.476	2.40227	-2.18269
H	13.4161	0.365028	-1.9797
