15
  This energy is -3.4211e-05 and Call times are: 8057
C	0.0271373	0.414682	-0.0882761
O	0.743487	0.224134	0.879081
O	-0.680231	-0.604305	-0.686076
H	-0.115679	1.39804	-0.561052
H	-1.21137	-0.301993	-1.451
C	11.7007	0.80139	-0.968832
O	10.8517	1.37352	-1.64065
O	12.5123	-0.17263	-1.48218
H	11.8824	1.01851	0.0934413
H	13.1444	-0.537337	-0.817783
C	14.3127	-0.734035	1.70918
O	13.5329	0.140756	2.0357
O	14.3249	-1.2254	0.412657
H	15.0495	-1.20112	2.37271
H	14.9848	-1.92686	0.240937
