15
  This energy is 0.00111295 and Call times are: 18282
C	-0.328346	0.0190728	0.268915
O	0.151017	1.13905	0.235686
O	0.189728	-1.02004	-0.471297
H	-1.20034	-0.256546	0.880928
H	-0.297946	-1.85936	-0.343537
C	7.03831	-0.545047	-0.532125
O	5.93892	-0.921431	-0.918451
O	7.57881	-0.949721	0.657411
H	7.67922	0.143151	-1.1015
H	8.46982	-0.56106	0.827957
C	10.6905	1.01774	0.223642
O	10.0974	1.29609	-0.801467
O	10.1294	0.159149	1.15669
H	11.6801	1.39779	0.502055
H	10.6774	-0.00723391	1.94977
