15
  This energy is -0.000242117 and Call times are: 22605
C	0.0396748	0.399467	0.139077
O	0.528751	-0.311602	0.99956
O	-0.503775	-0.118412	-1.01528
H	-0.0104458	1.49669	0.206117
H	-0.858331	0.571556	-1.61264
C	13.1508	-0.374581	-0.688234
O	14.2413	-0.651981	-1.17156
O	12.7267	0.914887	-0.520163
H	12.4262	-1.12946	-0.351175
H	11.827	0.975481	-0.118956
C	9.46933	-0.0622096	0.955138
O	9.96616	-1.15377	0.750851
O	10.1524	1.09985	0.630073
H	8.48	0.107352	1.39533
H	9.67603	1.93071	0.829459
