15
  This energy is -0.00088377 and Call times are: 12720
C	-0.16387	0.375925	-0.110986
O	0.632425	0.0794657	-0.984641
O	-0.395003	-0.439066	0.974573
H	-0.757406	1.30254	-0.111337
H	-1.05947	-0.0714874	1.59261
C	3.73995	1.66351	0.200538
O	3.40312	2.83288	0.337256
O	5.00447	1.22403	0.481191
H	3.06278	0.874134	-0.155693
H	5.12084	0.257134	0.321228
C	4.27864	-2.29294	-0.438355
O	3.19917	-1.77265	-0.648424
O	5.34918	-1.54309	0.0244826
H	4.50554	-3.35504	-0.585874
H	6.1772	-2.04469	0.165055
