15
  This energy is 0.000880619 and Call times are: 3774
C	0.017346	0.413115	0.0976006
O	0.103583	0.345328	-1.11616
O	-0.108093	-0.709304	0.885326
H	0.0317014	1.35806	0.661311
H	-0.166656	-0.500386	1.84007
C	8.30045	-0.442662	-1.66834
O	8.15107	-0.76456	-2.84036
O	9.1427	0.563825	-1.28297
H	7.77642	-0.929271	-0.833368
H	9.15401	0.704133	-0.306133
C	8.39124	0.178012	2.32646
O	7.68241	-0.688324	1.8499
O	9.18433	0.972563	1.51266
H	8.47247	0.408649	3.39487
H	9.72072	1.64237	1.98236
