15
  This energy is -0.0116877 and Call times are: 2266
C	0.127652	0.139083	-0.380594
O	0.247633	1.08012	0.38445
O	-0.343059	-1.08611	0.0358369
H	0.379579	0.183239	-1.45087
H	-0.385036	-1.74436	-0.687729
C	4.48785	0.0708927	-1.59404
O	4.9803	0.10982	-2.71455
O	3.56977	0.987766	-1.16116
H	4.73809	-0.695841	-0.846997
H	3.2667	0.822738	-0.236528
C	3.20958	-0.552472	2.19137
O	4.02721	-1.29621	1.68303
O	2.69683	0.525706	1.48626
H	2.81345	-0.65244	3.20841
H	2.04548	1.06861	1.97409
