15
  This energy is -0.00223847 and Call times are: 19268
C	-0.110824	0.316288	0.261095
O	-1.13255	-0.304238	0.0238701
O	1.10443	-0.0431919	-0.277415
H	-0.0687246	1.20139	0.91357
H	1.83446	0.54659	0.00155576
C	4.98202	1.00319	1.38261
O	4.74534	1.71282	2.35213
O	6.18713	0.38199	1.20169
H	4.25456	0.805968	0.582315
H	6.22378	-0.15455	0.374159
C	5.19343	-1.20983	-1.99521
O	4.1763	-0.604741	-1.71347
O	6.30358	-1.15542	-1.16626
H	5.3309	-1.82953	-2.88873
H	7.07558	-1.67259	-1.47209
