15
  This energy is -0.000761908 and Call times are: 18576
C	0.217461	-0.362937	-0.0384428
O	0.511003	0.315048	-1.00768
O	-0.662785	0.0795053	0.923576
H	0.621294	-1.3689	0.150924
H	-0.801678	-0.571514	1.64155
C	5.15731	-1.71905	-0.0712614
O	4.97267	-2.92856	-0.122016
O	6.40534	-1.16849	0.0297209
H	4.34503	-0.978895	-0.102103
H	6.39021	-0.182137	0.0596522
C	5.15922	2.32262	0.0581079
O	4.11433	1.706	-0.0317055
O	6.37331	1.65559	0.118376
H	5.24496	3.41454	0.0987811
H	7.16042	2.23211	0.18956
