15
  This energy is -0.000899288 and Call times are: 3690
C	0.158159	0.25426	0.301376
O	-0.0226521	-0.829185	0.829296
O	-0.135421	0.479194	-1.025
H	0.563948	1.13196	0.826619
H	0.0616172	1.39522	-1.30903
C	3.71792	0.136221	-1.42691
O	3.01607	0.224603	-2.42649
O	4.9615	0.70036	-1.34837
H	3.41285	-0.398286	-0.515975
H	5.40213	0.542546	-0.479481
C	5.57535	-0.479223	2.11188
O	4.46257	-0.927554	1.90988
O	6.2331	0.252597	1.13496
H	6.14484	-0.601259	3.04036
H	7.12276	0.573283	1.38523
