15
  This energy is -0.00730559 and Call times are: 2461
C	-0.15553	0.238832	-0.315056
O	-1.08902	-0.423064	0.104158
O	1.11008	0.137338	0.217866
H	-0.238687	0.962134	-1.14018
H	1.75634	0.728822	-0.219273
C	5.2468	1.48204	0.635862
O	5.71242	2.52633	1.07431
O	4.16693	0.86245	1.20234
H	5.6518	0.957635	-0.241379
H	3.91058	0.0315651	0.735496
C	4.15007	-1.93186	-1.23346
O	5.0962	-1.28147	-1.63585
O	3.42575	-1.51912	-0.125497
H	3.79023	-2.86474	-1.68238
H	2.68265	-2.10363	0.125749
