15
  This energy is 0.000525656 and Call times are: 6377
C	-0.0812154	0.201757	-0.36495
O	0.312062	1.05186	0.414734
O	-0.194559	-1.12281	-0.00614928
H	-0.374988	0.4122	-1.40433
H	-0.522841	-1.6884	-0.734809
C	10.8846	0.682134	0.797979
O	11.852	1.16975	1.36885
O	11.0091	-0.163904	-0.269544
H	9.8435	0.879829	1.09065
H	10.1398	-0.472986	-0.619859
C	7.3533	-0.616825	-0.683473
O	7.38509	0.141284	0.267497
O	8.52547	-1.05329	-1.28187
H	6.44064	-1.01344	-1.14286
H	8.40364	-1.66038	-2.03922
