15
  This energy is -0.00882126 and Call times are: 306
C	-0.207193	0.36547	0.0631939
O	-0.398608	-0.311762	1.05816
O	0.553898	-0.0848813	-0.992266
H	-0.617047	1.37689	-0.0780272
H	0.619506	0.566532	-1.72025
C	3.19896	1.34043	-0.100385
O	2.42564	2.28818	-0.157988
O	3.41731	0.503052	-1.15964
H	3.77843	1.08315	0.797723
H	4.06725	-0.211816	-0.958233
C	5.85302	-1.61264	0.665927
O	5.56818	-0.797659	1.5231
O	5.27528	-1.54905	-0.592942
H	6.56025	-2.44019	0.793484
H	5.56345	-2.24477	-1.21738
