15
  This energy is -0.0013562 and Call times are: 10656
C	-0.0511312	0.414284	0.0790223
O	0.0891219	-0.125071	1.16284
O	-0.0281263	-0.296939	-1.09983
H	-0.20557	1.4959	-0.0519881
H	-0.153664	0.268886	-1.88894
C	7.18452	1.28413	-1.15051
O	7.0292	2.19765	-1.9511
O	7.54125	0.0209156	-1.53512
H	7.05219	1.39871	-0.0651843
H	7.62754	-0.603306	-0.775562
C	7.55151	-1.32096	1.92043
O	7.23901	-0.162972	2.12412
O	7.78902	-1.77523	0.632098
H	7.67159	-2.08681	2.69524
H	8.03464	-2.71968	0.563803
