15
  This energy is 0.000792994 and Call times are: 21009
C	0.178045	-0.0505885	0.382402
O	0.00626613	1.14773	0.241801
O	-0.180373	-0.959252	-0.588132
H	0.625824	-0.504568	1.27923
H	0.0174345	-1.88438	-0.335898
C	5.97276	0.972618	0.18999
O	4.97224	1.66357	0.335313
O	6.10948	0.0824502	-0.839481
H	6.83836	1.00738	0.866814
H	6.97093	-0.39879	-0.821042
C	9.48412	-1.03277	0.213886
O	9.23449	-0.210069	1.07466
O	8.57196	-1.30267	-0.794915
H	10.4094	-1.61672	0.149818
H	8.85735	-1.97792	-1.44265
