15
  This energy is 0.00088951 and Call times are: 13846
C	-0.32869	0.237115	-0.127395
O	-0.282425	-0.716859	-0.884388
O	0.571092	0.39729	0.90256
H	-1.07835	1.0396	-0.197676
H	0.410668	1.20891	1.42615
C	7.56762	-1.43902	0.109692
O	8.25096	-2.45114	0.200532
O	7.06605	-0.993992	-1.08248
H	7.30092	-0.807194	0.968899
H	6.53561	-0.166587	-0.992649
C	5.38562	1.95186	0.414072
O	5.88936	1.44849	1.40045
O	5.54724	1.37609	-0.836902
H	4.78219	2.86682	0.412038
H	5.10727	1.84922	-1.57144
