15
  This energy is -8.2449e-05 and Call times are: 24243
C	0.320504	-0.181037	-0.212116
O	0.0835143	-0.909967	0.735377
O	-0.388195	0.977728	-0.438121
H	1.10604	-0.379491	-0.956738
H	-0.0867209	1.45964	-1.23529
C	25.1339	-0.680677	-1.49508
O	24.7219	-1.15921	-2.54431
O	26.4665	-0.518546	-1.2331
H	24.4757	-0.343573	-0.681622
H	26.6394	-0.120033	-0.346913
C	25.9054	0.946992	2.12531
O	24.76	0.748811	1.76637
O	26.9729	0.619929	1.30301
H	26.1977	1.38263	3.08763
H	27.857	0.814379	1.67372
