15
  This energy is 5.8443e-05 and Call times are: 8267
C	0.352403	0.140812	0.190983
O	0.71046	-0.355255	-0.863038
O	-0.970654	0.173998	0.571099
H	1.04027	0.597341	0.918533
H	-1.10681	0.602719	1.44074
C	16.0927	-0.380032	0.0975158
O	17.2839	-0.657754	0.15684
O	15.5252	0.596676	0.868826
H	15.3838	-0.885987	-0.57337
H	14.5575	0.702342	0.706517
C	12.1254	0.0981186	-0.521877
O	12.7534	-0.737791	-1.14395
O	12.7537	0.906096	0.413511
H	11.0517	0.289543	-0.630748
H	12.1707	1.54903	0.864871
