15
  This energy is -0.00284788 and Call times are: 6839
C	-0.290606	-0.13995	-0.276501
O	0.31254	0.756706	-0.839945
O	0.0106713	-0.527749	1.00993
H	-1.11322	-0.708415	-0.735905
H	-0.556171	-1.25895	1.33031
C	7.67073	1.1373	-0.333033
O	8.57562	1.92914	-0.564816
O	6.35013	1.48397	-0.415105
H	7.83932	0.0906352	-0.0420832
H	5.74157	0.737448	-0.199738
C	5.12707	-1.88212	0.541488
O	6.33065	-2.0561	0.576225
O	4.59879	-0.645953	0.201809
H	4.37333	-2.64608	0.764038
H	3.62169	-0.598624	0.199836
