15
  This energy is 0.000176623 and Call times are: 22479
C	-0.412214	0.101136	-0.0184753
O	0.160706	1.08306	0.420659
O	0.26358	-1.05141	-0.351644
H	-1.49873	0.0486416	-0.184698
H	-0.326828	-1.75505	-0.690637
C	13.7814	1.2252	1.22635
O	13.6991	2.079	2.10032
O	13.6932	1.52417	-0.105475
H	13.9316	0.15613	1.43396
H	13.7786	0.730048	-0.685226
C	14.1217	-1.99131	-1.2006
O	14.1827	-2.11764	0.00786996
O	13.9342	-0.743114	-1.77453
H	14.2045	-2.80995	-1.92466
H	13.8977	-0.737119	-2.75208
