15
  This energy is -0.00176771 and Call times are: 8477
C	0.363249	-0.0520858	-0.214073
O	0.255355	1.14475	-0.011149
O	-0.581236	-0.955165	0.220051
H	1.20786	-0.509	-0.751437
H	-0.361036	-1.87974	-0.0150514
C	4.05035	0.496258	-1.65838
O	4.15771	0.859058	-2.82304
O	3.84434	-0.810404	-1.31039
H	4.10957	1.18165	-0.800881
H	3.77954	-0.943788	-0.334668
C	3.77375	-0.1128	2.32965
O	3.95717	1.00454	1.88468
O	3.65509	-1.20321	1.48143
H	3.6875	-0.360926	3.39374
H	3.50932	-2.06173	1.92716
