15
  This energy is -0.000953687 and Call times are: 14899
C	-0.0929683	0.266814	-0.317266
O	0.760364	-0.489896	-0.746754
O	-0.577107	0.168604	0.968049
H	-0.543847	1.07977	-0.906092
H	-1.25763	0.842445	1.17161
C	11.3966	1.56297	-0.301713
O	11.8951	2.66323	-0.502953
O	10.4437	1.02522	-1.1226
H	11.6685	0.919029	0.546781
H	10.1408	0.133068	-0.828772
C	10.1136	-2.09376	0.853394
O	10.9609	-1.5028	1.49596
O	9.56773	-1.52864	-0.289063
H	9.71386	-3.08437	1.09866
H	8.89396	-2.07517	-0.741079
