15
  This energy is -0.000606577 and Call times are: 15781
C	0.419798	-0.0644916	0.0100361
O	0.211986	0.934425	0.676539
O	-0.598651	-0.758086	-0.604583
H	1.41953	-0.492943	-0.156931
H	-0.281337	-1.53779	-1.10457
C	10.3556	-1.71796	0.089243
O	10.1883	-2.9287	0.164954
O	10.0603	-1.00316	-1.03892
H	10.7532	-1.10719	0.912299
H	10.2492	-0.039065	-0.944812
C	11.1116	2.2412	0.413816
O	11.3294	1.49027	1.34588
O	10.5996	1.75853	-0.780963
H	11.2887	3.3228	0.421416
H	10.4565	2.43392	-1.47402
