15
  This energy is -0.00401272 and Call times are: 14185
C	0.180058	0.322828	-0.209408
O	0.775202	-0.682752	-0.555612
O	-0.858299	0.283126	0.69409
H	0.414349	1.33204	-0.580226
H	-1.23945	1.16647	0.875865
C	6.09508	0.158659	1.70322
O	5.89292	0.266003	2.90621
O	5.13916	0.444851	0.767696
H	7.0518	-0.173371	1.27543
H	5.45334	0.30996	-0.158113
C	7.32402	-0.377946	-2.1117
O	8.07704	-0.596591	-1.18152
O	6.02773	0.0598382	-1.88684
H	7.57929	-0.498403	-3.17076
H	5.49461	0.209707	-2.69325
