15
  This energy is -3.2127e-05 and Call times are: 25547
C	-0.188113	-0.29974	-0.235074
O	-0.25195	-0.682149	0.920319
O	0.406235	0.894044	-0.57815
H	-0.591479	-0.862677	-1.09024
H	0.382694	1.0687	-1.54124
C	15.8279	0.0296143	0.606804
O	16.9788	0.041309	1.02488
O	14.8302	0.771876	1.17646
H	15.5002	-0.571808	-0.253137
H	13.9591	0.656179	0.727092
C	12.2321	-0.405167	-1.19123
O	13.2059	-1.0096	-1.59904
O	12.3311	0.446288	-0.101373
H	11.2259	-0.467906	-1.62134
H	11.4978	0.889564	0.155931
