15
  This energy is 2.9055e-05 and Call times are: 25127
C	0.361254	-0.210507	0.0753156
O	-0.281066	-0.900476	-0.697092
O	-0.107725	0.998331	0.538823
H	1.35331	-0.486074	0.463637
H	0.51569	1.43953	1.15144
C	14.9051	-0.635242	-1.59017
O	14.6838	-1.0828	-2.70833
O	16.1713	-0.404128	-1.12708
H	14.1142	-0.383132	-0.869436
H	16.1858	-0.042697	-0.208834
C	15.029	0.845014	2.17086
O	13.9643	0.594767	1.63816
O	16.2244	0.628955	1.50242
H	15.1478	1.24691	3.18361
H	17.0299	0.858537	2.00791
