15
  This energy is -0.000504015 and Call times are: 20883
C	-0.0956276	0.17253	0.37627
O	-0.969108	0.529833	-0.394841
O	0.945835	-0.63521	-0.0224567
H	-0.0616149	0.45756	1.43858
H	1.56961	-0.839443	0.704044
C	8.39009	-0.252745	1.13618
O	9.30559	-0.439062	1.92784
O	7.30455	0.523715	1.43557
H	8.36148	-0.688533	0.1273
H	6.65337	0.577475	0.695911
C	5.68378	0.00366427	-1.85748
O	6.69697	-0.656022	-1.99288
O	5.43245	0.682676	-0.67496
H	4.90365	0.123564	-2.61795
H	4.59427	1.18673	-0.655977
