15
  This energy is 0.000428596 and Call times are: 6167
C	-0.104269	-0.270489	0.31057
O	-0.96997	0.587239	0.300168
O	0.955079	-0.250567	-0.568893
H	-0.0918291	-1.12039	1.00943
H	1.56967	-1.00217	-0.442489
C	3.44351	1.30875	0.625626
O	2.76241	2.22218	1.07433
O	4.4179	1.50952	-0.313073
H	3.33219	0.259678	0.934864
H	4.87899	0.67689	-0.574144
C	5.36781	-2.06947	-0.486362
O	4.47813	-2.10735	0.342553
O	5.74314	-0.868733	-1.06939
H	5.93633	-2.93701	-0.840574
H	6.46668	-0.933844	-1.72455
