15
  This energy is 0.000145791 and Call times are: 22689
C	0.184144	-0.109111	-0.366983
O	1.0896	0.0743625	0.427839
O	-1.13869	0.0417922	-0.0156724
H	0.339384	-0.405753	-1.41522
H	-1.75284	-0.138538	-0.756553
C	13.7938	0.0836117	-0.65738
O	12.6618	0.128878	-1.12231
O	14.4749	1.20394	-0.267698
H	14.3546	-0.851026	-0.514405
H	15.3742	1.00455	0.0864408
C	17.4891	-0.670408	0.801314
O	16.7764	-1.5793	0.419144
O	17.0524	0.644436	0.746008
H	18.4996	-0.790576	1.20842
H	17.6917	1.30815	1.07436
