15
  This energy is 6.83e-05 and Call times are: 7217
C	0.0359911	0.353559	-0.23279
O	-1.0592	0.405344	0.299295
O	0.895767	-0.703571	-0.0344694
H	0.427948	1.13107	-0.905656
H	1.73737	-0.607772	-0.525529
C	10.4478	-1.46528	0.81707
O	10.1394	-2.50458	1.38652
O	9.75945	-0.296633	0.994045
H	11.2954	-1.38219	0.121873
H	10.1292	0.451969	0.467844
C	11.9159	1.63994	-1.31696
O	12.4358	0.542005	-1.38268
O	10.8087	1.85309	-0.509968
H	12.2519	2.52979	-1.86158
H	10.4579	2.7662	-0.519585
