15
  This energy is -0.0103624 and Call times are: 16347
C	-0.345769	0.109302	-0.221331
O	0.60172	0.257417	-0.973377
O	-0.189361	-0.333638	1.07305
H	-1.38987	0.312117	-0.503505
H	-1.03755	-0.403877	1.55705
C	7.10219	0.15842	0.858737
O	8.16174	0.283183	1.45988
O	6.41233	-1.02204	0.820077
H	6.61881	0.975287	0.304086
H	5.57764	-0.963699	0.296703
C	3.67173	0.334986	-1.27494
O	4.3813	1.31652	-1.16013
O	4.02149	-0.866614	-0.677959
H	2.72975	0.300407	-1.8342
H	3.39189	-1.60104	-0.823545
