15
  This energy is -0.00285303 and Call times are: 5740
C	0.359706	0.190886	0.121099
O	-0.500146	0.554845	0.90432
O	0.086383	-0.675225	-0.913897
H	1.41012	0.515155	0.169817
H	0.873641	-0.877484	-1.45972
C	4.59773	-1.53786	-0.802266
O	4.51803	-2.61594	-1.37757
O	5.26239	-1.38343	0.383181
H	4.147	-0.610817	-1.18436
H	5.23823	-0.456305	0.720656
C	4.53127	2.24215	0.632652
O	3.97764	1.96728	-0.415212
O	5.19754	1.26737	1.35962
H	4.55931	3.23874	1.08795
H	5.61276	1.57922	2.18866
