15
  This energy is 6.2852e-05 and Call times are: 7301
C	-0.00379471	-0.211937	-0.368183
O	1.06771	0.366547	-0.31847
O	-0.934869	-0.114069	0.641565
H	-0.316876	-0.851267	-1.20731
H	-1.74628	-0.632237	0.463458
C	15.0826	1.6606	-0.339284
O	15.3437	2.83487	-0.568406
O	15.6274	0.631706	-1.05727
H	14.3954	1.33499	0.454559
H	15.3203	-0.255534	-0.753105
C	13.8589	-2.00211	0.860232
O	13.4502	-0.999636	1.41529
O	14.7529	-1.91342	-0.195875
H	13.5768	-3.02784	1.12408
H	15.0269	-2.77006	-0.580679
