15
  This energy is -0.00289633 and Call times are: 5334
C	-0.105588	0.186301	-0.366924
O	0.456866	1.03815	0.298838
O	-0.297916	-1.09558	0.0976707
H	-0.502062	0.361613	-1.37835
H	-0.763383	-1.6684	-0.545628
C	3.17117	0.592666	-1.59992
O	2.93219	0.998959	-2.73013
O	3.94143	1.29362	-0.713202
H	2.79161	-0.360173	-1.20419
H	4.04184	0.83633	0.155607
C	3.621	-1.23352	1.97983
O	2.95858	-1.74985	1.09966
O	4.2372	-0.00802321	1.7773
H	3.79098	-1.66204	2.9742
H	4.74859	0.330301	2.53953
