15
  This energy is 8.2711e-05 and Call times are: 22269
C	-0.347552	0.223994	-0.0975969
O	-0.701184	-0.939971	-0.0242669
O	0.957735	0.606308	0.117186
H	-1.0258	1.05676	-0.33713
H	1.0924	1.57165	0.0245014
C	10.8196	-0.0921823	-0.716225
O	9.71155	-0.157122	-1.23349
O	10.997	-0.0296342	0.638585
H	11.7576	-0.07866	-1.28947
H	11.9472	0.0182557	0.901056
C	14.695	0.108307	0.420816
O	14.3972	0.0479292	-0.757203
O	13.7143	0.110001	1.40101
H	15.7181	0.164907	0.809962
H	14.0461	0.160985	2.31986
