15
  This energy is -0.0046753 and Call times are: 10047
C	0.218795	0.361767	0.0417623
O	-0.534359	0.306119	0.998271
O	0.254853	-0.624406	-0.918567
H	0.923141	1.18821	-0.136549
H	0.907673	-0.444262	-1.62566
C	5.47353	0.270908	-1.61765
O	5.86515	0.459052	-2.76255
O	6.29988	0.366602	-0.531888
H	4.43529	0.0116238	-1.36584
H	5.83739	0.187714	0.321416
C	3.63425	-0.4545	1.90977
O	3.01323	-0.506384	0.864911
O	4.98603	-0.145945	1.91667
H	3.2109	-0.637221	2.9041
H	5.4028	-0.126921	2.8015
