15
  This energy is -0.00300055 and Call times are: 5112
C	0.0173752	-0.394314	0.15718
O	1.04382	-0.235561	-0.48036
O	-0.934656	0.594346	0.267898
H	-0.23546	-1.32299	0.690598
H	-1.70392	0.323841	0.809807
C	8.06115	0.283095	-0.708369
O	9.15555	0.483234	-1.22004
O	7.90195	0.0857544	0.635735
H	7.12199	0.245065	-1.27855
H	6.96117	-0.061966	0.894837
C	4.2251	-0.330463	0.414199
O	4.50614	-0.141329	-0.754273
O	5.21188	-0.340407	1.38823
H	3.21356	-0.504023	0.798837
H	4.89384	-0.499827	2.29951
