15
  This energy is -0.00459145 and Call times are: 11696
C	0.207293	0.118149	0.351512
O	-0.12346	-1.04205	0.524103
O	-0.0950604	0.799997	-0.805957
H	0.765799	0.712678	1.0901
H	0.234074	1.72209	-0.802254
C	6.40908	0.431973	0.745111
O	7.47253	0.748323	1.26335
O	5.79662	-0.765577	0.99345
H	5.86036	1.07586	0.0430458
H	4.94748	-0.873399	0.502164
C	2.92374	-0.0688547	-1.24321
O	3.57062	0.953128	-1.37429
O	3.36517	-1.08555	-0.410131
H	1.97273	-0.28131	-1.74495
H	2.78127	-1.86922	-0.366477
