15
  This energy is 0.000481972 and Call times are: 24959
C	0.217285	0.0618394	-0.359797
O	0.670128	-0.952082	0.142341
O	-0.802495	0.776213	0.228242
H	0.575442	0.488614	-1.30874
H	-1.06187	1.56625	-0.288651
C	11.3492	-1.30916	1.11459
O	11.1718	-2.22277	1.91047
O	11.5277	-1.52361	-0.224455
H	11.3799	-0.249028	1.40398
H	11.658	-0.688786	-0.734475
C	11.891	2.07678	-1.02872
O	11.7203	2.12587	0.174836
O	11.904	0.860323	-1.69404
H	12.0445	2.94538	-1.67928
H	12.0475	0.917208	-2.66003
