15
  This energy is -0.000387895 and Call times are: 22857
C	0.348228	-0.210705	-0.121785
O	-0.345667	-1.01485	0.475796
O	-0.0381423	1.09907	-0.298649
H	1.32575	-0.454257	-0.564535
H	0.619289	1.62651	-0.796842
C	13.673	-0.318236	-1.07558
O	12.7297	-0.544969	-1.82277
O	14.9205	-0.00315554	-1.53969
H	13.6	-0.347914	0.0209371
H	15.5732	0.151937	-0.815853
C	16.3932	0.326576	1.84615
O	15.244	0.0382331	2.12212
O	16.7979	0.44086	0.524889
H	17.188	0.516276	2.57661
H	17.739	0.67598	0.398009
