15
  This energy is 3.3868e-05 and Call times are: 24033
C	-0.293539	0.268096	-0.149833
O	0.189805	0.805083	0.83163
O	0.121444	-0.971033	-0.583905
H	-1.08867	0.716189	-0.764553
H	-0.355958	-1.27462	-1.38298
C	23.2821	-1.11649	0.96441
O	22.644	-1.90146	1.65451
O	22.9409	-0.827089	-0.328162
H	24.1747	-0.582148	1.31988
H	23.551	-0.177003	-0.751502
C	25.7487	1.54177	-0.824939
O	25.9391	1.19729	0.326213
O	24.6828	1.03193	-1.55059
H	26.3688	2.25495	-1.38001
H	24.6077	1.36514	-2.46728
