15
  This energy is 0.000756585 and Call times are: 22353
C	-0.219429	-0.322167	-0.168967
O	-1.04485	0.481052	0.229479
O	1.13401	-0.106466	-0.0357794
H	-0.476484	-1.27237	-0.660836
H	1.6742	-0.836589	-0.401455
C	12.8077	1.49382	0.646736
O	13.2484	2.54077	1.10424
O	11.5049	1.35238	0.254795
H	13.4142	0.586754	0.512784
H	11.3026	0.451003	-0.0924903
C	11.9174	-2.18201	-0.784179
O	13.0425	-1.92189	-0.401189
O	10.9143	-1.22583	-0.739338
H	11.5962	-3.15055	-1.18419
H	10.0422	-1.52365	-1.06754
