44
  This energy is -7.0489 and Call times are: 83570
C	1.05412	2.48033	-2.20215
C	0.973265	1.06538	-1.77494
O	1.32175	0.158743	-2.51856
H	1.44147	2.52814	-3.24309
H	1.74236	3.04237	-1.53643
H	0.0471565	2.94743	-2.17162
N	0.501037	0.842514	-0.546234
C	0.323535	-0.482451	-0.00630784
C	-0.810026	-0.434836	1.00083
O	-1.29346	0.638868	1.35461
H	0.183013	1.5884	0.0320294
H	0.0216832	-1.15422	-0.800184
C	1.62188	-0.983912	0.663079
H	1.92622	-0.300783	1.48451
H	1.5022	-2.00867	1.07059
H	2.43946	-1.00305	-0.0902818
N	-1.26837	-1.60709	1.48224
C	-2.34794	-1.66049	2.4403
H	-0.867184	-2.46576	1.1809
H	-2.57978	-2.71358	2.71323
H	-3.26945	-1.19639	2.01995
H	-2.07656	-1.10889	3.3694
C	4.25925	1.78219	2.93046
C	4.14365	1.60862	1.46497
O	3.40483	2.32114	0.79948
H	3.58359	2.60213	3.25762
H	5.30266	2.04579	3.20348
H	3.96644	0.846012	3.45095
N	4.88316	0.638671	0.922083
C	4.84488	0.321532	-0.483802
C	5.17946	-1.14927	-0.646167
O	5.58266	-1.81242	0.307442
H	5.44867	0.0402439	1.48239
H	3.83808	0.466235	-0.855353
C	5.84437	1.19462	-1.27372
H	6.87878	1.03863	-0.899932
H	5.81442	0.969558	-2.35953
H	5.58524	2.26685	-1.13402
N	5.01051	-1.69807	-1.8653
C	5.2979	-3.09165	-2.11333
H	4.6794	-1.14634	-2.62361
H	5.09559	-3.35189	-3.17568
H	4.66739	-3.74389	-1.46655
H	6.36655	-3.31766	-1.89415
