44
  This energy is -5.2421 and Call times are: 91066
C	0.347602	0.432063	3.43587
C	0.749313	-0.187874	2.15312
O	1.78446	-0.832801	2.05853
H	1.12212	0.220112	4.20469
H	-0.62183	0.0118483	3.77699
H	0.251805	1.53185	3.31595
N	-0.0748492	-0.000520089	1.11966
C	0.202505	-0.505681	-0.201873
C	-0.464266	0.41252	-1.20879
O	-1.23904	1.29359	-0.841169
H	-0.893099	0.561214	1.20205
H	1.26916	-0.463584	-0.383815
C	-0.317247	-1.95137	-0.360194
H	-1.41325	-1.99334	-0.183997
H	-0.0973946	-2.35658	-1.36915
H	0.178128	-2.60386	0.391611
N	-0.16959	0.231324	-2.51123
C	-0.751794	1.06075	-3.54044
H	0.462822	-0.484248	-2.78887
H	-0.385474	0.755673	-4.54541
H	-0.485341	2.13061	-3.3802
H	-1.86264	0.976563	-3.5315
C	5.57309	3.30475	-0.177889
C	5.51607	1.89041	-0.610944
O	4.60968	1.48285	-1.32424
H	4.69364	3.84931	-0.585184
H	6.49992	3.78409	-0.557321
H	5.5523	3.36667	0.930626
N	6.4996	1.09748	-0.179305
C	6.55679	-0.311	-0.481731
C	7.29051	-1.00803	0.648484
O	7.85982	-0.35946	1.52424
H	7.20804	1.4344	0.434258
H	5.55112	-0.711641	-0.508933
C	7.27462	-0.557765	-1.82675
H	8.30995	-0.156291	-1.79575
H	7.31286	-1.63765	-2.07755
H	6.72505	-0.032087	-2.6379
N	7.28646	-2.35557	0.659355
C	7.95355	-3.10511	1.69828
H	6.81683	-2.86279	-0.0556679
H	7.83609	-4.19856	1.53155
H	7.5286	-2.85531	2.69742
H	9.04193	-2.86799	1.71694
