44
  This energy is -2.9346 and Call times are: 86293
C	1.29838	-2.1621	-2.39838
C	0.717683	-0.862066	-1.9936
O	0.713554	0.094305	-2.75633
H	1.70314	-2.07818	-3.43037
H	0.517988	-2.95169	-2.38153
H	2.12349	-2.44344	-1.71053
N	0.207981	-0.7977	-0.761353
C	-0.352725	0.410852	-0.21038
C	-0.17403	0.371405	1.29563
O	0.221558	-0.64878	1.85639
H	0.255541	-1.57267	-0.137627
H	0.203999	1.26336	-0.579047
C	-1.84778	0.541586	-0.575019
H	-2.42115	-0.327565	-0.1879
H	-2.28761	1.47515	-0.168174
H	-1.95537	0.560467	-1.68155
N	-0.455622	1.49255	1.98828
C	-0.310091	1.5506	3.42412
H	-0.770598	2.30937	1.51641
H	-0.589669	2.55667	3.80738
H	0.743515	1.34288	3.72084
H	-0.962945	0.793821	3.91627
C	5.19874	-1.555	-3.10368
C	5.17198	-0.345798	-2.2503
O	5.48014	0.750753	-2.69642
H	5.54275	-1.27717	-4.12364
H	4.18215	-1.99572	-3.1749
H	5.89838	-2.30645	-2.68073
N	4.79834	-0.523418	-0.980954
C	4.76464	0.55022	-0.01933
C	5.00568	-0.0400603	1.35728
O	5.02379	-1.25781	1.52599
H	4.58989	-1.42867	-0.621882
H	5.57664	1.23727	-0.222389
C	3.40807	1.28716	-0.062537
H	2.57554	0.584923	0.156107
H	3.3747	2.12493	0.663785
H	3.24913	1.70399	-1.08103
N	5.20609	0.816169	2.37841
C	5.44869	0.346166	3.72244
H	5.19183	1.79812	2.22144
H	5.58934	1.20194	4.41894
H	6.36386	-0.288285	3.75749
H	4.59095	-0.264764	4.08602
