44
  This energy is -0.8412 and Call times are: 89243
C	-2.23177	1.52799	-2.19024
C	-1.88604	0.960799	-0.867398
O	-2.61793	1.11885	0.0999539
H	-3.19049	2.08527	-2.11173
H	-2.34907	0.714437	-2.93665
H	-1.43671	2.22634	-2.52682
N	-0.741234	0.277713	-0.795416
C	-0.250196	-0.296115	0.432656
C	1.26432	-0.345305	0.359362
O	1.8527	-0.0900217	-0.689616
H	-0.136039	0.192464	-1.58176
H	-0.512238	0.352003	1.25964
C	-0.828057	-1.71179	0.649889
H	-0.550622	-2.37993	-0.19311
H	-0.468287	-2.15888	1.5992
H	-1.93759	-1.65275	0.692373
N	1.93451	-0.66899	1.48279
C	3.37709	-0.73553	1.50976
H	1.44104	-0.868252	2.32294
H	3.7389	-1.01716	2.52317
H	3.82086	0.250325	1.24063
H	3.74935	-1.49203	0.781566
C	6.74452	-3.04332	0.855875
C	7.54976	-2.19259	-0.0491151
O	8.19206	-2.67857	-0.969816
H	6.85748	-4.10792	0.556356
H	5.67205	-2.76348	0.790634
H	7.09397	-2.92568	1.90331
N	7.53404	-0.880929	0.199229
C	8.30149	0.0683248	-0.567895
C	8.6314	1.24571	0.33016
O	8.11937	1.3519	1.44293
H	7.03912	-0.504727	0.977296
H	9.23953	-0.385519	-0.862394
C	7.51395	0.538932	-1.81029
H	6.55634	1.01409	-1.50817
H	8.09979	1.25972	-2.41673
H	7.27651	-0.339816	-2.44885
N	9.5075	2.15902	-0.132788
C	9.88602	3.30986	0.653629
H	9.91444	2.05373	-1.03412
H	10.6157	3.94141	0.100499
H	10.354	2.99284	1.61373
H	8.99399	3.93267	0.893463
