44
  This energy is -3.9633 and Call times are: 84194
C	-0.305906	-3.34022	-0.928448
C	-0.862218	-2.08551	-0.374063
O	-2.0637	-1.95509	-0.184763
H	-1.13554	-4.05211	-1.13046
H	0.394984	-3.80207	-0.201681
H	0.230163	-3.13409	-1.87883
N	0.0153802	-1.11764	-0.0994036
C	-0.379208	0.174409	0.404051
C	0.647543	1.19366	-0.0525394
O	1.69322	0.836223	-0.591539
H	0.985669	-1.22377	-0.29725
H	-1.32874	0.454119	-0.0350228
C	-0.478736	0.159096	1.94519
H	0.497947	-0.117531	2.39641
H	-0.795259	1.14457	2.34415
H	-1.22978	-0.599256	2.25693
N	0.366668	2.49652	0.146661
C	1.28142	3.53773	-0.259898
H	-0.486471	2.76633	0.580742
H	0.871133	4.54108	-0.0105423
H	1.46107	3.49573	-1.35864
H	2.26256	3.42205	0.255007
C	6.9169	-0.205296	-2.93007
C	5.80546	-0.649537	-2.05915
O	4.9386	-1.40573	-2.47525
H	6.79047	-0.648494	-3.94172
H	7.88901	-0.539303	-2.51031
H	6.91393	0.901515	-3.01969
N	5.80596	-0.178899	-0.809791
C	4.76731	-0.487438	0.141303
C	4.65908	0.670348	1.11567
O	5.49161	1.57511	1.11363
H	6.49577	0.468252	-0.497996
H	3.8194	-0.562707	-0.376788
C	5.07954	-1.80013	0.892705
H	6.04684	-1.71972	1.43298
H	4.28028	-2.05586	1.61817
H	5.16217	-2.63195	0.159504
N	3.61783	0.672396	1.97112
C	3.42982	1.73563	2.93047
H	2.95224	-0.0663875	1.95487
H	2.51816	1.55676	3.54213
H	3.31805	2.7161	2.41329
H	4.30466	1.80507	3.61674
