44
  This energy is -3.3689 and Call times are: 89271
C	2.60248	1.55886	-1.7058
C	1.84375	0.351883	-1.30746
O	2.04352	-0.727901	-1.8465
H	3.30365	1.29723	-2.52786
H	3.1868	1.94519	-0.844371
H	1.90712	2.34714	-2.06381
N	0.939025	0.512452	-0.338918
C	0.0940674	-0.559273	0.125855
C	-1.20012	0.0460383	0.635989
O	-1.32038	1.26343	0.759285
H	0.759018	1.40627	0.0617761
H	-0.157493	-1.20301	-0.70778
C	0.791269	-1.36683	1.24255
H	1.04009	-0.708977	2.10241
H	0.156271	-2.20353	1.59923
H	1.73962	-1.79379	0.849259
N	-2.20783	-0.796097	0.938228
C	-3.47808	-0.310885	1.42529
H	-2.09295	-1.77779	0.827982
H	-4.17513	-1.15646	1.61595
H	-3.9496	0.371023	0.681019
H	-3.3445	0.254787	2.37572
C	5.48117	2.41955	2.41064
C	6.07063	1.99191	1.12191
O	6.49443	2.81	0.317214
H	5.49087	3.52969	2.46856
H	6.07262	2.01037	3.25651
H	4.43175	2.06484	2.48788
N	6.10863	0.677001	0.893977
C	6.61327	0.111316	-0.332357
C	5.90331	-1.20779	-0.572081
O	5.18152	-1.70077	0.292623
H	5.72247	0.0255734	1.5408
H	6.36348	0.766679	-1.15742
C	8.14082	-0.102371	-0.253781
H	8.39678	-0.783036	0.585995
H	8.54353	-0.524662	-1.19719
H	8.63907	0.874519	-0.0700227
N	6.08673	-1.809	-1.7641
C	5.44741	-3.06403	-2.08403
H	6.67123	-1.39263	-2.45263
H	5.72211	-3.39507	-3.10979
H	4.33892	-2.9644	-2.03301
H	5.75622	-3.85698	-1.365
