44
  This energy is -4.4495 and Call times are: 90270
C	0.710338	3.34573	0.643585
C	-0.142416	2.28209	0.0668542
O	-1.26591	2.52792	-0.349974
H	0.154628	4.30851	0.632333
H	1.63818	3.45931	0.0444581
H	0.976106	3.09645	1.69255
N	0.381769	1.05473	0.0322153
C	-0.342877	-0.0902589	-0.460176
C	0.179326	-1.3231	0.253235
O	1.17845	-1.26175	0.967171
H	1.28184	0.862574	0.412768
H	-1.38982	0.0119804	-0.203101
C	-0.172147	-0.235854	-1.98821
H	0.900858	-0.351351	-2.25157
H	-0.736733	-1.10596	-2.38151
H	-0.553443	0.680711	-2.48908
N	-0.49478	-2.47731	0.0817457
C	-0.0752671	-3.70047	0.725226
H	-1.30339	-2.50622	-0.496514
H	-0.757633	-4.53808	0.460631
H	-0.0783558	-3.58252	1.83309
H	0.957172	-3.97619	0.410281
C	5.33243	2.81838	1.98412
C	5.8114	1.55988	1.36937
O	6.99642	1.25692	1.38867
H	6.19841	3.37489	2.40392
H	4.61686	2.59596	2.80341
H	4.83422	3.45197	1.22031
N	4.8839	0.787736	0.798473
C	5.20239	-0.445274	0.122595
C	4.15861	-0.67807	-0.953468
O	3.15473	0.0286361	-1.0205
H	3.92908	1.06751	0.754869
H	6.15974	-0.343908	-0.373197
C	5.22932	-1.62776	1.11569
H	4.24415	-1.73875	1.61687
H	5.48705	-2.58069	0.609703
H	5.99437	-1.43223	1.8985
N	4.37759	-1.67675	-1.83136
C	3.44236	-1.96895	-2.89255
H	5.19777	-2.23512	-1.76347
H	3.80005	-2.8239	-3.50765
H	3.31677	-1.08555	-3.55972
H	2.44331	-2.23096	-2.47493
