44
  This energy is -5.3205 and Call times are: 87805
C	-1.47638	3.14515	-0.202455
C	-0.378655	2.19896	-0.503871
O	0.492542	2.47811	-1.31597
H	-1.35592	4.05796	-0.825473
H	-1.44838	3.43505	0.868954
H	-2.45749	2.67923	-0.433588
N	-0.398886	1.03749	0.154121
C	0.577381	-0.000712749	-0.0640709
C	-0.0768481	-1.33598	0.236914
O	-1.19159	-1.38903	0.75292
H	-1.13729	0.808017	0.781794
H	0.862297	-0.00930644	-1.10876
C	1.81647	0.209711	0.833494
H	1.5262	0.208067	1.90577
H	2.58153	-0.575606	0.664741
H	2.27431	1.19611	0.60168
N	0.603048	-2.45296	-0.0888734
C	0.0577103	-3.76799	0.154993
H	1.50205	-2.38974	-0.50944
H	0.766387	-4.5563	-0.182
H	-0.902857	-3.9027	-0.39313
H	-0.140939	-3.91589	1.24118
C	5.74421	-2.32066	2.54619
C	5.45837	-0.94808	2.07133
O	5.07892	-0.0776392	2.84254
H	5.54034	-2.38172	3.63732
H	6.80988	-2.57414	2.36496
H	5.09573	-3.05112	2.01801
N	5.6354	-0.722287	0.767468
C	5.35717	0.550739	0.150579
C	4.9741	0.301653	-1.29606
O	5.0985	-0.814121	-1.79734
H	5.90534	-1.45153	0.145219
H	4.50261	1.00427	0.637055
C	6.58524	1.48367	0.232589
H	7.45935	1.02344	-0.275516
H	6.37906	2.47211	-0.226762
H	6.85252	1.64558	1.29968
N	4.48784	1.34144	-2.00205
C	4.09187	1.19785	-3.38363
H	4.39069	2.23571	-1.57789
H	3.71833	2.16432	-3.78815
H	3.28161	0.439665	-3.48324
H	4.95355	0.866186	-4.00705
