44
  This energy is -2.7798 and Call times are: 86566
C	0.179643	1.421	3.17194
C	-0.226935	1.45669	1.74906
O	-0.988195	2.31751	1.32967
H	-0.322174	2.24904	3.7182
H	1.27926	1.54746	3.25903
H	-0.118639	0.454905	3.63105
N	0.279321	0.503604	0.963121
C	-0.0575653	0.382474	-0.433444
C	0.0659833	-1.07804	-0.824841
O	0.559431	-1.89749	-0.0523627
H	0.865292	-0.214437	1.32771
H	-1.09196	0.668643	-0.577518
C	0.872353	1.25665	-1.30311
H	1.93277	0.956477	-1.16366
H	0.614127	1.18274	-2.37939
H	0.771425	2.31994	-0.99397
N	-0.390677	-1.44058	-2.03977
C	-0.320095	-2.80905	-2.49637
H	-0.790442	-0.763913	-2.64918
H	-0.746184	-2.90477	-3.51936
H	-0.890905	-3.48049	-1.81474
H	0.736672	-3.16079	-2.52217
C	5.88265	-2.30219	2.53227
C	5.48006	-0.956508	2.06515
O	4.9914	-0.139681	2.83354
H	5.64899	-2.40038	3.61468
H	6.97353	-2.44776	2.38546
H	5.32699	-3.08373	1.97235
N	5.67809	-0.693589	0.771305
C	5.29761	0.556062	0.161253
C	4.98985	0.29418	-1.30103
O	5.23972	-0.795963	-1.81177
H	6.03898	-1.38297	0.149716
H	4.38682	0.916334	0.62308
C	6.425	1.6027	0.2983
H	7.35662	1.23801	-0.184539
H	6.13871	2.57363	-0.155412
H	6.63894	1.77267	1.37611
N	4.42829	1.2929	-2.01041
C	4.09518	1.13371	-3.40679
H	4.22981	2.16652	-1.57858
H	3.64273	2.0656	-3.81187
H	3.36685	0.301929	-3.54449
H	5.00575	0.8976	-4.00366
