44
  This energy is 0.1067 and Call times are: 88211
C	3.41073	0.352807	0.59593
C	2.16169	0.741919	-0.0966223
O	2.10214	1.76213	-0.76895
H	4.19114	1.12123	0.405207
H	3.77008	-0.626461	0.21561
H	3.23557	0.282412	1.69021
N	1.11809	-0.0763435	0.0573899
C	-0.175754	0.191128	-0.519668
C	-1.22911	-0.453063	0.361818
O	-0.908068	-1.20793	1.27769
H	1.17017	-0.881609	0.641087
H	-0.356922	1.25871	-0.511121
C	-0.262668	-0.361421	-1.95924
H	-0.0873174	-1.45834	-1.96728
H	-1.24949	-0.149563	-2.41949
H	0.522145	0.117856	-2.58431
N	-2.52009	-0.160873	0.108795
C	-3.59105	-0.722525	0.898593
H	-2.75992	0.455339	-0.634063
H	-4.57853	-0.361948	0.535171
H	-3.48399	-0.431828	1.96878
H	-3.58066	-1.83502	0.840343
C	6.92926	0.692875	-3.28164
C	6.06081	0.90198	-2.10129
O	5.27244	1.83609	-2.053
H	6.73944	1.49784	-4.02451
H	6.70757	-0.2887	-3.75079
H	7.99778	0.725833	-2.9812
N	6.1907	0.0221289	-1.10561
C	5.4453	0.119388	0.124622
C	6.27191	-0.510962	1.22959
O	7.2992	-1.13465	0.969964
H	6.86586	-0.709078	-1.14236
H	5.30981	1.1633	0.378627
C	4.07879	-0.589243	-0.000792842
H	4.21754	-1.66264	-0.251003
H	3.4895	-0.50943	0.935633
H	3.49427	-0.116884	-0.820278
N	5.84378	-0.354305	2.49772
C	6.56836	-0.914119	3.61475
H	5.01239	0.157155	2.68821
H	6.05734	-0.676638	4.57376
H	7.6029	-0.502816	3.65769
H	6.64088	-2.02184	3.5208
