44
  This energy is -4.4213 and Call times are: 91697
C	0.556139	-1.93391	2.83961
C	0.1221	-1.77889	1.43294
O	-0.0892897	-2.7536	0.724651
H	0.655107	-3.01559	3.07636
H	-0.193779	-1.48352	3.52336
H	1.53926	-1.441	2.99328
N	-0.0202126	-0.52742	0.990282
C	-0.394639	-0.217022	-0.366927
C	0.199866	1.13206	-0.724829
O	0.72969	1.83461	0.133906
H	0.195106	0.255807	1.56653
H	0.042203	-0.949338	-1.0344
C	-1.93092	-0.190344	-0.523037
H	-2.37867	0.568166	0.153882
H	-2.23186	0.0339567	-1.5669
H	-2.34505	-1.18502	-0.248323
N	0.132481	1.52325	-2.01264
C	0.676146	2.7887	-2.44767
H	-0.29648	0.939213	-2.69379
H	0.522891	2.92769	-3.54057
H	1.76914	2.83959	-2.23778
H	0.182457	3.63288	-1.91403
C	4.00918	-2.97995	1.38967
C	4.79397	-1.7267	1.45755
O	5.27096	-1.33495	2.51369
H	3.94118	-3.4262	2.40559
H	4.50472	-3.7055	0.710869
H	2.98337	-2.76955	1.02019
N	4.9451	-1.05833	0.311765
C	5.64622	0.198612	0.227573
C	5.05968	0.991065	-0.925491
O	4.25949	0.47379	-1.70256
H	4.51631	-1.36859	-0.531877
H	5.47019	0.767133	1.13224
C	7.1593	-0.0268039	0.0153981
H	7.34102	-0.600923	-0.918097
H	7.71219	0.933441	-0.0371923
H	7.56562	-0.61531	0.866813
N	5.44077	2.2768	-1.05839
C	4.93096	3.11021	-2.1222
H	6.08609	2.67883	-0.417284
H	5.36274	4.13349	-2.06141
H	3.82177	3.19352	-2.05866
H	5.18838	2.67932	-3.11679
