44
  This energy is 0.1194 and Call times are: 84159
C	2.24584	0.251204	2.64684
C	1.78975	-0.360259	1.37828
O	2.51175	-1.11836	0.7455
H	3.28474	-0.0808949	2.86198
H	1.58707	-0.0651147	3.48273
H	2.23233	1.35851	2.5645
N	0.560095	-0.036201	0.971711
C	-0.00610168	-0.517588	-0.263703
C	-1.00384	0.512052	-0.759603
O	-1.33162	1.46294	-0.0524418
H	-0.000155638	0.614286	1.47654
H	0.775719	-0.594234	-1.00903
C	-0.695147	-1.88455	-0.0590789
H	-1.5043	-1.80409	0.697783
H	-1.1231	-2.2724	-1.00615
H	0.0517441	-2.62021	0.311467
N	-1.50632	0.349318	-1.99938
C	-2.45749	1.2818	-2.5579
H	-1.22588	-0.424163	-2.55809
H	-2.75069	0.975879	-3.58633
H	-2.02091	2.3056	-2.60786
H	-3.3768	1.32876	-1.93035
C	7.58573	2.00703	-0.207847
C	6.17127	1.71232	-0.529737
O	5.45097	2.55497	-1.04696
H	7.81608	3.05677	-0.492179
H	8.25663	1.32621	-0.772749
H	7.76443	1.88218	0.880984
N	5.73545	0.488248	-0.223002
C	4.37295	0.0681309	-0.436655
C	4.03854	-0.994282	0.593402
O	4.91398	-1.47189	1.31256
H	6.32232	-0.173236	0.235122
H	3.70936	0.906041	-0.262947
C	4.18393	-0.485114	-1.86614
H	4.85695	-1.35137	-2.0413
H	3.13561	-0.799138	-2.04759
H	4.44184	0.306514	-2.60313
N	2.75268	-1.3847	0.694173
C	2.3394	-2.38604	1.64952
H	2.05788	-0.983709	0.106352
H	1.24457	-2.56918	1.57852
H	2.57323	-2.05806	2.68828
H	2.86886	-3.34854	1.46397
