44
  This energy is -5.8856 and Call times are: 89797
C	-2.51779	2.39456	-0.198794
C	-1.11449	1.96072	-0.38232
O	-0.316713	2.64584	-1.00728
H	-2.67243	3.36636	-0.716072
H	-2.74053	2.52294	0.881321
H	-3.21058	1.64262	-0.632045
N	-0.778359	0.791004	0.166461
C	0.537697	0.216877	0.0363293
C	0.404809	-1.29251	0.111549
O	-0.663463	-1.81597	0.422178
H	-1.44939	0.225326	0.637201
H	0.937235	0.457208	-0.941036
C	1.47744	0.733762	1.14762
H	1.0733	0.478223	2.15032
H	2.49778	0.309604	1.05012
H	1.5535	1.84091	1.07838
N	1.49301	-2.03139	-0.181543
C	1.45964	-3.47482	-0.142043
H	2.34737	-1.58977	-0.434749
H	2.45122	-3.89871	-0.41466
H	0.701269	-3.86987	-0.856245
H	1.19305	-3.83404	0.878266
C	3.73995	1.47162	-2.91254
C	4.2071	0.296508	-2.1431
O	4.06746	-0.839338	-2.57526
H	3.26791	1.12734	-3.85832
H	4.59696	2.13322	-3.15867
H	2.99061	2.04141	-2.32355
N	4.78006	0.548817	-0.963927
C	5.24547	-0.49324	-0.082983
C	5.16189	0.0199159	1.34224
O	4.90736	1.20053	1.5726
H	4.84965	1.47605	-0.607206
H	4.58311	-1.34664	-0.157913
C	6.69476	-0.900634	-0.427689
H	7.37646	-0.027835	-0.340737
H	7.05981	-1.71204	0.234792
H	6.73367	-1.26536	-1.47735
N	5.36759	-0.864235	2.33822
C	5.30275	-0.468381	3.72576
H	5.56829	-1.81623	2.13203
H	5.49982	-1.33692	4.39213
H	4.29563	-0.0599061	3.97102
H	6.05808	0.320603	3.94512
