44
  This energy is -2.5942 and Call times are: 86726
C	-1.61526	-1.65829	2.59879
C	-1.12155	-0.423771	1.94813
O	-1.45462	0.681603	2.35263
H	-2.29725	-1.38604	3.43344
H	-0.763847	-2.24279	3.00647
H	-2.17322	-2.27973	1.86695
N	-0.303745	-0.588606	0.905827
C	0.223439	0.516397	0.144508
C	0.475429	0.0369346	-1.27259
O	0.388372	-1.15563	-1.5588
H	-0.0743658	-1.49505	0.562872
H	-0.520738	1.3013	0.091941
C	1.52839	1.04878	0.77611
H	2.29571	0.24673	0.82062
H	1.93681	1.9088	0.206833
H	1.322	1.38662	1.81516
N	0.787657	0.963503	-2.19996
C	1.03896	0.601504	-3.57546
H	0.84935	1.92414	-1.95008
H	1.27877	1.50268	-4.18176
H	0.145539	0.106938	-4.02097
H	1.89622	-0.106574	-3.64522
C	5.85157	-0.368675	-3.44759
C	5.73415	-0.928671	-2.08239
O	5.52045	-2.1197	-1.90298
H	5.69922	-1.1803	-4.19185
H	6.86069	0.0700504	-3.59578
H	5.08101	0.41475	-3.60743
N	5.87155	-0.0656345	-1.0731
C	5.74034	-0.453419	0.30928
C	5.25042	0.74933	1.09346
O	5.19216	1.86072	0.570841
H	6.00443	0.907913	-1.23559
H	4.9839	-1.22364	0.393977
C	7.08855	-0.954209	0.872133
H	7.86225	-0.160796	0.795128
H	6.99744	-1.26885	1.93196
H	7.43178	-1.82938	0.278325
N	4.87642	0.551485	2.37291
C	4.39182	1.63565	3.19505
H	4.92683	-0.35586	2.77697
H	4.13507	1.27187	4.21435
H	3.4801	2.09204	2.74586
H	5.16496	2.43199	3.29117
