44
  This energy is -1.4841 and Call times are: 92689
C	2.07322	1.78875	2.14821
C	1.85733	0.912403	0.974949
O	2.75956	0.683635	0.181194
H	3.11864	2.16671	2.13692
H	1.90702	1.21946	3.08685
H	1.37793	2.65385	2.11279
N	0.633882	0.396154	0.836956
C	0.260048	-0.439631	-0.276719
C	-1.22677	-0.263937	-0.521782
O	-1.92648	0.361168	0.272805
H	-0.101337	0.624435	1.46879
H	0.775877	-0.100875	-1.16655
C	0.590277	-1.92087	0.00986909
H	0.0530745	-2.2719	0.916636
H	0.3198	-2.5729	-0.845826
H	1.68193	-2.02452	0.194003
N	-1.74476	-0.808496	-1.64034
C	-3.14819	-0.687955	-1.95979
H	-1.16187	-1.30718	-2.27329
H	-3.37867	-1.20158	-2.9191
H	-3.43821	0.383329	-2.05733
H	-3.77417	-1.14352	-1.1587
C	5.70758	2.18958	-2.60141
C	6.66716	1.52532	-1.69084
O	7.87356	1.59879	-1.87955
H	6.26667	2.69793	-3.4168
H	5.1144	2.94638	-2.04632
H	5.02255	1.43901	-3.04912
N	6.14229	0.848603	-0.666653
C	6.94651	0.115112	0.278747
C	6.11616	-1.03687	0.812619
O	4.91653	-1.12029	0.556409
H	5.15692	0.763786	-0.549609
H	7.79939	-0.312306	-0.233628
C	7.41087	1.02889	1.43401
H	6.53616	1.4593	1.96662
H	8.04252	0.479028	2.16146
H	8.00976	1.86899	1.01941
N	6.74219	-1.96251	1.5658
C	6.03453	-3.09677	2.11245
H	7.71431	-1.88004	1.75883
H	6.72224	-3.74268	2.7016
H	5.58859	-3.71157	1.29732
H	5.20986	-2.76027	2.78165
