44
  This energy is -4.9338 and Call times are: 87734
C	1.78205	-2.33227	-1.87015
C	0.59607	-1.92413	-1.08402
O	-0.417815	-2.60834	-1.06649
H	1.56216	-3.28524	-2.39872
H	2.65215	-2.48665	-1.19796
H	2.02954	-1.55326	-2.62181
N	0.698703	-0.778246	-0.406677
C	-0.385978	-0.229531	0.368525
C	-0.233095	1.27962	0.393855
O	0.782327	1.8172	-0.0439163
H	1.51584	-0.211756	-0.463567
H	-1.32465	-0.450434	-0.124154
C	-0.380929	-0.798464	1.80433
H	0.577708	-0.562988	2.31384
H	-1.21973	-0.394091	2.40717
H	-0.485906	-1.90457	1.76117
N	-1.24982	2.00263	0.903309
C	-1.19597	3.44473	0.963647
H	-2.06506	1.54988	1.24896
H	-2.12651	3.85448	1.41467
H	-1.0816	3.87656	-0.0569975
H	-0.330362	3.78031	1.57948
C	3.44205	2.52543	-1.57045
C	4.70732	1.81105	-1.28774
O	5.71974	2.03585	-1.93649
H	3.59591	3.22135	-2.4236
H	3.12629	3.11093	-0.681498
H	2.64462	1.80027	-1.83752
N	4.67546	0.917137	-0.29664
C	5.81579	0.113425	0.067007
C	5.3079	-1.1908	0.652336
O	4.11387	-1.34698	0.90057
H	3.83327	0.7157	0.195292
H	6.37947	-0.131059	-0.824688
C	6.70933	0.852971	1.08676
H	6.13437	1.09469	2.00602
H	7.59817	0.250058	1.36421
H	7.06302	1.80785	0.640166
N	6.20876	-2.16688	0.87974
C	5.81716	-3.44379	1.42958
H	7.16993	-2.02321	0.668585
H	6.69999	-4.11107	1.54176
H	5.07899	-3.94802	0.764649
H	5.3468	-3.31295	2.43097
