44
  This energy is -3.605 and Call times are: 93297
C	0.216701	2.32338	2.58218
C	-0.201005	1.92514	1.21907
O	-0.958587	2.62357	0.55978
H	-0.273955	3.28413	2.85069
H	1.31798	2.45922	2.62061
H	-0.0857275	1.54773	3.31703
N	0.291145	0.771826	0.760762
C	-0.0579368	0.231682	-0.529566
C	0.0505765	-1.27967	-0.454729
O	0.54354	-1.82772	0.529312
H	0.874169	0.194253	1.325
H	-1.0911	0.470421	-0.749134
C	0.872036	0.787483	-1.63024
H	1.93107	0.533736	-1.41091
H	0.60457	0.389706	-2.63062
H	0.782249	1.89532	-1.66164
N	-0.418774	-1.99265	-1.49751
C	-0.363	-3.43586	-1.5127
H	-0.817911	-1.53144	-2.28303
H	-0.798067	-3.83633	-2.4548
H	-0.933751	-3.86003	-0.655029
H	0.69063	-3.78932	-1.43481
C	5.40503	0.493078	3.40023
C	4.66419	0.764815	2.14784
O	3.61174	1.38823	2.15751
H	4.84249	0.918696	4.25945
H	6.40995	0.963475	3.36016
H	5.51527	-0.601709	3.54977
N	5.20646	0.292264	1.02311
C	4.58097	0.439973	-0.26743
C	5.00987	-0.726674	-1.13723
O	5.89036	-1.49973	-0.764623
H	6.0426	-0.248634	1.03605
H	3.50596	0.378531	-0.152498
C	4.97975	1.77996	-0.923661
H	6.08167	1.83903	-1.05143
H	4.49352	1.91177	-1.91196
H	4.66334	2.61905	-0.266278
N	4.38665	-0.886039	-2.32138
C	4.7243	-1.97076	-3.21332
H	3.67381	-0.252622	-2.6037
H	4.10193	-1.9308	-4.13435
H	4.55431	-2.95408	-2.71787
H	5.79626	-1.9152	-3.51158
