44
  This energy is -4.0266 and Call times are: 92998
C	0.230819	1.56455	3.10026
C	-0.0579982	0.384782	2.25416
O	-0.218266	-0.723426	2.74671
H	0.283189	1.249	4.16495
H	-0.573756	2.32153	2.98894
H	1.20387	2.01431	2.81047
N	-0.129491	0.601108	0.938691
C	-0.360676	-0.455152	-0.0149484
C	0.29446	-0.0610689	-1.32531
O	0.750892	1.06918	-1.48634
H	0.0438082	1.50126	0.549381
H	0.124941	-1.35977	0.329239
C	-1.87296	-0.695323	-0.216366
H	-2.36982	0.229485	-0.579543
H	-2.06396	-1.51577	-0.93811
H	-2.33299	-0.974613	0.756627
N	0.363521	-0.994027	-2.29528
C	0.973997	-0.711752	-3.57349
H	-0.00773962	-1.9043	-2.14479
H	0.933007	-1.60521	-4.23476
H	2.04155	-0.420839	-3.44322
H	0.447455	0.126923	-4.08391
C	4.09518	3.20336	-0.859432
C	3.90671	1.91364	-0.157804
O	3.0203	1.76842	0.67261
H	3.34551	3.93593	-0.489056
H	3.95595	3.06821	-1.95264
H	5.11334	3.60064	-0.662997
N	4.75326	0.933112	-0.480765
C	4.72206	-0.364046	0.147695
C	6.12566	-0.93892	0.115856
O	7.01685	-0.389316	-0.528678
H	5.49538	1.07899	-1.12871
H	4.44356	-0.250383	1.18795
C	3.73503	-1.30484	-0.577511
H	4.02636	-1.43014	-1.64216
H	3.69165	-2.30256	-0.0946132
H	2.71617	-0.860507	-0.54878
N	6.35745	-2.06224	0.823269
C	7.66334	-2.67845	0.856806
H	5.62461	-2.49011	1.34188
H	7.65126	-3.59124	1.49235
H	8.41995	-1.97316	1.27079
H	7.98719	-2.96926	-0.168715
