44
  This energy is -3.0084 and Call times are: 85104
C	0.312356	2.9503	1.81957
C	-0.182623	1.56456	1.65876
O	-0.669484	0.953104	2.59976
H	0.175566	3.26892	2.87581
H	-0.256481	3.63884	1.15996
H	1.39202	3.00294	1.56529
N	-0.0645416	1.02976	0.441208
C	-0.461757	-0.323192	0.140717
C	0.399973	-0.826405	-1.00198
O	1.14411	-0.0621805	-1.61348
H	0.371301	1.52541	-0.30461
H	-0.260661	-0.953323	0.998112
C	-1.95719	-0.387517	-0.239805
H	-2.16203	0.250518	-1.1258
H	-2.27861	-1.42613	-0.46001
H	-2.56823	-0.00718952	0.607736
N	0.324634	-2.1356	-1.3124
C	1.1116	-2.70557	-2.38104
H	-0.280275	-2.73905	-0.803472
H	0.909695	-3.79489	-2.48026
H	2.1995	-2.56725	-2.18454
H	0.870897	-2.21433	-3.35155
C	5.52158	3.40638	0.575837
C	5.49119	2.00049	1.03812
O	5.89729	1.69074	2.14967
H	5.96555	4.04474	1.37034
H	4.49138	3.76166	0.363199
H	6.13951	3.49393	-0.342621
N	5.00236	1.10356	0.178507
C	4.94828	-0.307582	0.46888
C	5.03861	-1.06421	-0.842959
O	4.97367	-0.470961	-1.91792
H	4.7136	1.36509	-0.738049
H	5.812	-0.583856	1.06073
C	3.64395	-0.668084	1.21319
H	2.75764	-0.394497	0.60192
H	3.59676	-1.74973	1.45472
H	3.5953	-0.0970351	2.16602
N	5.20014	-2.40079	-0.784036
C	5.30156	-3.2034	-1.98058
H	5.25462	-2.86244	0.0951625
H	5.43101	-4.27785	-1.72361
H	6.17323	-2.88274	-2.59592
H	4.3831	-3.09962	-2.60251
