44
  This energy is 0.1154 and Call times are: 93055
C	2.61946	-2.2829	0.198777
C	1.17929	-1.95794	0.0916744
O	0.353127	-2.82175	-0.168516
H	2.76805	-3.36524	-0.00700108
H	2.98753	-2.05774	1.22179
H	3.20085	-1.6933	-0.541126
N	0.842466	-0.681605	0.291386
C	-0.513478	-0.204948	0.178357
C	-0.469105	1.25278	-0.239507
O	0.594525	1.86911	-0.26298
H	1.53096	0.0175085	0.461925
H	-1.01959	-0.750706	-0.608174
C	-1.26679	-0.361681	1.51746
H	-0.753834	0.206622	2.32241
H	-2.31627	-0.0109318	1.43954
H	-1.27996	-1.43497	1.8077
N	-1.63118	1.83858	-0.589433
C	-1.68567	3.22046	-1.00614
H	-2.48097	1.32238	-0.568004
H	-2.72927	3.51602	-1.25262
H	-1.05275	3.38389	-1.90835
H	-1.3132	3.88988	-0.197266
C	-0.782367	1.96781	0.46708
C	0.052957	0.788877	0.78879
O	-0.179337	0.0974931	1.77085
H	-1.56964	2.08301	1.24347
H	-1.26951	1.83338	-0.521536
H	-0.157956	2.8859	0.449469
N	1.06276	0.531501	-0.0457462
C	1.98778	-0.555141	0.159437
C	3.31616	-0.169534	-0.463689
O	3.41557	0.837721	-1.16173
H	1.2641	1.12726	-0.818006
H	2.15542	-0.685887	1.22124
C	1.45344	-1.86069	-0.469273
H	1.29127	-1.73026	-1.56048
H	2.15039	-2.7081	-0.305983
H	0.477216	-2.11932	-0.00404168
N	4.37655	-0.963672	-0.216882
C	5.68182	-0.673127	-0.762812
H	4.27731	-1.77214	0.353733
H	6.42062	-1.44192	-0.446022
H	6.04065	0.322377	-0.414254
H	5.64754	-0.657284	-1.87624
