44
  This energy is -3.4971 and Call times are: 89355
C	-2.22006	-2.25435	-1.4498
C	-0.84834	-1.77622	-1.16534
O	0.128014	-2.47041	-1.41282
H	-2.17068	-3.28078	-1.87392
H	-2.71385	-1.58499	-2.18524
H	-2.81791	-2.28042	-0.514384
N	-0.743833	-0.558794	-0.627456
C	0.521034	0.0247073	-0.255708
C	0.279321	0.985156	0.893495
O	-0.863503	1.27846	1.23938
H	-1.54979	-0.0223529	-0.393927
H	1.18046	-0.753601	0.107636
C	1.16131	0.762133	-1.45216
H	0.489772	1.56761	-1.81859
H	2.14237	1.20403	-1.1824
H	1.32176	0.0418996	-2.28394
N	1.35814	1.49359	1.52092
C	1.22577	2.411	2.62863
H	2.27483	1.2412	1.22927
H	2.22578	2.71532	3.00887
H	0.661827	1.93809	3.46505
H	0.6754	3.32781	2.31606
C	4.4344	3.17908	-0.0475172
C	4.90412	1.95137	-0.728128
O	4.64654	1.74236	-1.90558
H	3.84332	3.79199	-0.762243
H	5.30116	3.77589	0.306449
H	3.79013	2.91451	0.817349
N	5.61421	1.09704	0.0123246
C	6.10262	-0.159719	-0.498141
C	6.20422	-1.13353	0.660713
O	6.0521	-0.751597	1.81946
H	5.78084	1.26163	0.980313
H	5.38253	-0.565113	-1.19796
C	7.47783	0.0180548	-1.17817
H	8.21964	0.424032	-0.457792
H	7.85827	-0.94015	-1.5876
H	7.38138	0.740572	-2.01782
N	6.45731	-2.4252	0.371669
C	6.56594	-3.4246	1.40876
H	6.57329	-2.71584	-0.572339
H	6.77645	-4.42498	0.970391
H	5.61899	-3.48983	1.99212
H	7.3895	-3.17058	2.11471
