44
  This energy is -0.498 and Call times are: 94688
C	-0.598385	3.23383	1.13885
C	-0.787726	2.1418	0.157645
O	-1.64358	2.21477	-0.713333
H	-1.33985	4.03813	0.940874
H	0.423978	3.65717	1.04776
H	-0.749482	2.85179	2.17051
N	0.020104	1.08612	0.281404
C	-0.0725319	-0.0723234	-0.571824
C	0.414863	-1.27676	0.211335
O	0.950909	-1.1392	1.30926
H	0.684463	1.02333	1.0207
H	-1.11104	-0.249251	-0.822468
C	0.769041	0.117304	-1.85285
H	1.83634	0.288355	-1.59664
H	0.694874	-0.762363	-2.52457
H	0.40001	1.0086	-2.40581
N	0.230855	-2.49451	-0.335705
C	0.657218	-3.69843	0.338807
H	-0.20857	-2.58589	-1.22319
H	0.417642	-4.59698	-0.271462
H	0.147348	-3.79803	1.3244
H	1.75644	-3.67968	0.519106
C	4.16816	2.43172	-1.92284
C	5.29416	1.50785	-1.6587
O	6.14867	1.29254	-2.50714
H	4.25291	2.82745	-2.95824
H	4.1956	3.28223	-1.20966
H	3.20118	1.89536	-1.82115
N	5.31815	0.93031	-0.455263
C	6.32652	-0.0242175	-0.0671656
C	5.71964	-0.962533	0.958911
O	4.6117	-0.736327	1.44162
H	4.59314	1.08401	0.210018
H	6.60269	-0.62164	-0.927071
C	7.56549	0.688983	0.517243
H	7.28455	1.29365	1.40577
H	8.35479	-0.0345668	0.807075
H	7.98829	1.37616	-0.247855
N	6.43352	-2.04981	1.31134
C	5.93432	-3.0017	2.27616
H	7.32633	-2.218	0.90676
H	6.66593	-3.82509	2.43109
H	4.97414	-3.44692	1.92812
H	5.74991	-2.50703	3.25721
