44
  This energy is 0.1274 and Call times are: 85873
C	3.3837	0.776778	-0.244664
C	2.00723	1.07693	0.209621
O	1.7863	1.9769	1.00815
H	4.0957	1.46412	0.261787
H	3.46435	0.920976	-1.34259
H	3.65136	-0.270141	0.0110966
N	1.03558	0.314184	-0.296833
C	-0.347889	0.457854	0.082564
C	-1.02253	-0.892519	-0.0688058
O	-0.440204	-1.83028	-0.610297
H	1.23564	-0.441082	-0.914422
H	-0.404839	0.731422	1.12877
C	-1.05303	1.51663	-0.793225
H	-1.00407	1.23114	-1.86567
H	-2.11542	1.64646	-0.501692
H	-0.537869	2.49463	-0.672853
N	-2.27231	-1.02511	0.417482
C	-2.9913	-2.2743	0.323764
H	-2.72548	-0.256068	0.855985
H	-4.00124	-2.18199	0.780628
H	-2.44017	-3.08534	0.852681
H	-3.11434	-2.57806	-0.741004
C	4.99042	-2.37625	2.44186
C	4.71794	-1.72118	1.14271
O	3.93085	-2.20649	0.341849
H	4.39931	-3.31523	2.51086
H	4.69857	-1.70565	3.27725
H	6.06956	-2.62391	2.52666
N	5.37655	-0.585286	0.901144
C	5.24848	0.14365	-0.336113
C	6.54602	0.890463	-0.581577
O	7.41589	0.943537	0.285723
H	6.04472	-0.22431	1.54543
H	5.12024	-0.556909	-1.15183
C	4.0601	1.12821	-0.275904
H	4.19632	1.85375	0.554206
H	3.94248	1.68561	-1.22774
H	3.12259	0.560786	-0.0876043
N	6.70988	1.48157	-1.78148
C	7.91394	2.20977	-2.10724
H	5.99641	1.42414	-2.47194
H	7.8577	2.62118	-3.13914
H	8.80501	1.54403	-2.04346
H	8.06457	3.05691	-1.39955
