44
  This energy is -7.5377 and Call times are: 84735
C	1.15694	1.59982	-2.86614
C	0.97355	1.52552	-1.39917
O	1.55424	2.29758	-0.648749
H	1.87677	2.41246	-3.1056
H	0.188359	1.81997	-3.36224
H	1.55897	0.638794	-3.2507
N	0.148809	0.575871	-0.951561
C	-0.0966976	0.352589	0.451447
C	-0.44252	-1.11197	0.643884
O	-0.636473	-1.84565	-0.323486
H	-0.284762	-0.0713368	-1.57205
H	0.81188	0.545339	1.00819
C	-1.24479	1.25147	0.96051
H	-2.17982	1.04666	0.396779
H	-1.43423	1.09886	2.0428
H	-0.973439	2.31812	0.802459
N	-0.519762	-1.57548	1.9069
C	-0.837593	-2.95626	2.18725
H	-0.355499	-0.967468	2.67659
H	-0.853166	-3.14138	3.28393
H	-0.0821032	-3.63425	1.72808
H	-1.83693	-3.2216	1.77245
C	5.23656	-3.41021	-0.496444
C	4.36808	-2.2131	-0.434781
O	3.21211	-2.24849	-0.833395
H	4.6712	-4.25095	-0.954023
H	5.55476	-3.70521	0.52555
H	6.13354	-3.2007	-1.11661
N	4.91698	-1.10724	0.0733253
C	4.2108	0.146783	0.158706
C	5.22899	1.26899	0.084477
O	6.43404	1.03041	0.135771
H	5.87169	-1.08292	0.355789
H	3.5567	0.247484	-0.698407
C	3.40144	0.235918	1.47104
H	4.07337	0.143224	2.35079
H	2.84213	1.19123	1.54224
H	2.66832	-0.599276	1.50754
N	4.76441	2.52707	-0.047465
C	5.6587	3.65814	-0.131711
H	3.78598	2.69979	-0.0912996
H	5.08561	4.60559	-0.237271
H	6.33619	3.55859	-1.01056
H	6.28927	3.72971	0.783931
