44
  This energy is 0.1492 and Call times are: 91014
C	3.26644	0.445791	1.1155
C	2.14296	-0.415883	0.683681
O	2.31133	-1.60417	0.446951
H	4.19902	-0.158147	1.15335
H	3.06497	0.859533	2.12593
H	3.40742	1.27988	0.396125
N	0.951798	0.17579	0.567818
C	-0.226227	-0.52221	0.116584
C	-1.14117	0.481776	-0.559022
O	-0.903619	1.68688	-0.504081
H	0.83885	1.15281	0.724489
H	0.0562211	-1.25436	-0.629611
C	-0.949694	-1.20458	1.29819
H	-1.24901	-0.452566	2.05906
H	-1.85087	-1.75698	0.961661
H	-0.258987	-1.92901	1.78243
N	-2.21153	0.00383315	-1.2238
C	-3.13484	0.88351	-1.90192
H	-2.38482	-0.974785	-1.26053
H	-3.94738	0.300762	-2.38916
H	-2.60943	1.47546	-2.68602
H	-3.59782	1.59734	-1.18272
C	8.08048	1.17504	0.544078
C	7.12578	0.221967	-0.0653024
O	7.48202	-0.563139	-0.933125
H	9.07954	1.04521	0.074097
H	8.16861	0.984082	1.63427
H	7.73818	2.2183	0.378232
N	5.86908	0.272792	0.382487
C	4.81809	-0.561849	-0.144157
C	3.50264	0.176833	0.0155127
O	3.43981	1.21751	0.667248
H	5.58511	0.945156	1.06009
H	4.97777	-0.710712	-1.2048
C	4.76998	-1.91871	0.591956
H	4.59567	-1.76703	1.67854
H	3.97369	-2.57583	0.186217
H	5.74534	-2.43807	0.468363
N	2.41587	-0.34397	-0.587574
C	1.12254	0.292422	-0.495564
H	2.48738	-1.18469	-1.11403
H	0.357955	-0.287558	-1.05795
H	1.16094	1.32291	-0.917351
H	0.795475	0.366224	0.566852
