44
  This energy is -3.3722 and Call times are: 85580
C	-2.4373	-1.24721	-2.14866
C	-1.41313	-1.42703	-1.09515
O	-1.31233	-2.48176	-0.483768
H	-3.04091	-2.17663	-2.23655
H	-1.95009	-1.04145	-3.12489
H	-3.11133	-0.404349	-1.88723
N	-0.618848	-0.38117	-0.854972
C	0.395767	-0.390122	0.169253
C	0.592473	1.03438	0.652617
O	0.0618176	1.9768	0.0678385
H	-0.739861	0.484403	-1.33247
H	0.0463156	-0.97176	1.01318
C	1.72222	-0.965884	-0.373216
H	2.0866	-0.363268	-1.23235
H	2.5075	-0.990941	0.409869
H	1.55282	-2.00578	-0.728571
N	1.35885	1.22388	1.74476
C	1.59788	2.54365	2.28073
H	1.77644	0.448462	2.20673
H	2.25133	2.49077	3.1793
H	0.638385	3.02852	2.57319
H	2.09515	3.19148	1.52297
C	8.45048	-2.22427	0.955494
C	7.04377	-1.76353	0.962449
O	6.14875	-2.46919	1.40675
H	8.50296	-3.25044	1.37985
H	9.07788	-1.54754	1.57287
H	8.84132	-2.24472	-0.0836884
N	6.81477	-0.548469	0.458897
C	5.49316	0.018781	0.358349
C	5.47905	0.980014	-0.815279
O	6.52142	1.28668	-1.39072
H	7.54795	-0.00260808	0.0635033
H	4.78235	-0.768227	0.139274
C	5.10619	0.750491	1.66223
H	5.82915	1.56482	1.88183
H	4.0851	1.17982	1.6024
H	5.13089	0.0298726	2.50865
N	4.28725	1.47401	-1.20462
C	4.17535	2.39094	-2.31498
H	3.4543	1.21093	-0.729156
H	3.11448	2.68227	-2.47905
H	4.55913	1.92346	-3.25063
H	4.76723	3.31501	-2.12283
