44
  This energy is -5.5387 and Call times are: 86354
C	-1.97436	0.340807	2.84578
C	-0.663762	0.366637	2.15816
O	0.331084	0.817925	2.70865
H	-1.86792	0.791873	3.85627
H	-2.32872	-0.70574	2.9549
H	-2.72115	0.925388	2.26815
N	-0.63512	-0.123847	0.916801
C	0.556869	-0.127186	0.105806
C	0.138157	-0.0580322	-1.35071
O	-1.04258	-0.175556	-1.67284
H	-1.46173	-0.450094	0.467198
H	1.13559	0.763215	0.317694
C	1.3987	-1.39527	0.367588
H	0.808911	-2.3088	0.140294
H	2.32621	-1.40295	-0.240836
H	1.68713	-1.42919	1.4409
N	1.10282	0.144246	-2.2697
C	0.79829	0.229617	-3.67901
H	2.05208	0.241047	-1.98932
H	1.72412	0.398712	-4.27186
H	0.0956705	1.07086	-3.87878
H	0.320355	-0.711438	-4.03557
C	3.62406	3.26396	-0.276606
C	4.19649	2.03094	-0.862405
O	4.26179	1.87706	-2.07421
H	3.28592	3.93654	-1.09463
H	4.39071	3.79168	0.328792
H	2.75365	3.01396	0.366008
N	4.6289	1.10904	0.00101375
C	5.17094	-0.159628	-0.417609
C	4.89778	-1.17476	0.676217
O	4.45358	-0.821272	1.76683
H	4.53152	1.23125	0.984597
H	4.65041	-0.494809	-1.30605
C	6.68758	-0.0494857	-0.687652
H	7.22332	0.284208	0.226497
H	7.11414	-1.01664	-1.02407
H	6.86447	0.704408	-1.48558
N	5.15118	-2.47014	0.404537
C	4.91688	-3.50734	1.38203
H	5.50652	-2.73715	-0.48513
H	5.18602	-4.50462	0.96944
H	3.84395	-3.52985	1.68136
H	5.52695	-3.33002	2.29719
