44
  This energy is 0.1575 and Call times are: 92091
C	2.98867	-1.09953	1.40413
C	2.06898	-0.0217713	0.975454
O	2.26545	1.14249	1.29532
H	3.79818	-0.664405	2.02962
H	3.44348	-1.58961	0.517723
H	2.43898	-1.85597	2.00307
N	1.02523	-0.393606	0.230669
C	0.0211215	0.534955	-0.2255
C	-1.28475	-0.220744	-0.384153
O	-1.31792	-1.44655	-0.294571
H	0.856279	-1.35061	0.0127944
H	-0.134844	1.29302	0.531891
C	0.437168	1.18399	-1.56374
H	0.587053	0.407507	-2.3439
H	-0.321478	1.91139	-1.91853
H	1.39897	1.72466	-1.42605
N	-2.3997	0.499514	-0.616842
C	-3.68853	-0.13274	-0.776023
H	-2.35349	1.49082	-0.681952
H	-4.47953	0.627468	-0.959433
H	-3.95997	-0.707139	0.139216
H	-3.67566	-0.840258	-1.63648
C	4.62191	2.82805	-1.94441
C	4.77461	2.15627	-0.634237
O	4.87387	2.80157	0.400239
H	4.63586	3.92971	-1.79612
H	3.65666	2.54051	-2.41171
H	5.45756	2.54563	-2.61895
N	4.79937	0.82154	-0.650999
C	4.98505	0.0289612	0.538915
C	5.65215	-1.27391	0.140072
O	5.79039	-1.5739	-1.04424
H	4.75859	0.311211	-1.50526
H	5.66036	0.544906	1.21001
C	3.63416	-0.245428	1.23539
H	2.9447	-0.784055	0.550865
H	3.76528	-0.843211	2.16058
H	3.16029	0.721901	1.51116
N	6.09148	-2.07923	1.12722
C	6.74348	-3.3364	0.843325
H	5.97423	-1.8174	2.07946
H	7.03093	-3.85203	1.78605
H	7.66461	-3.17329	0.238177
H	6.06694	-4.0089	0.267848
