44
  This energy is 0.1122 and Call times are: 91991
C	-3.13627	0.0844182	-1.50645
C	-2.25443	0.212076	-0.324415
O	-2.66931	0.679066	0.727347
H	-4.14399	0.482457	-1.25759
H	-3.23325	-0.982475	-1.79813
H	-2.72121	0.663932	-2.35791
N	-0.995458	-0.205757	-0.475358
C	-0.00879886	-0.105956	0.571113
C	1.35659	0.0248663	-0.0770891
O	1.4961	-0.1311	-1.28867
H	-0.661496	-0.545624	-1.3499
H	-0.183084	0.797954	1.14138
C	-0.054413	-1.34472	1.49232
H	0.134782	-2.27136	0.909576
H	0.691348	-1.2734	2.31041
H	-1.0648	-1.4251	1.94948
N	2.40098	0.324845	0.719956
C	3.73674	0.474684	0.191294
H	2.26757	0.451339	1.69734
H	4.4557	0.721329	1.00337
H	3.77008	1.291	-0.566194
H	4.07263	-0.466734	-0.300688
C	1.67209	0.200997	0.813677
C	3.07501	0.65245	0.952065
O	3.35207	1.68444	1.5476
H	0.998949	0.939006	1.30161
H	1.53778	-0.786482	1.30316
H	1.3999	0.121237	-0.259927
N	4.00614	-0.123806	0.392769
C	5.4095	0.206229	0.407063
C	6.05212	-0.406863	-0.822869
O	5.42673	-1.1884	-1.53687
H	3.7617	-0.93938	-0.123897
H	5.52471	1.28018	0.329791
C	6.08697	-0.320109	1.69129
H	5.97819	-1.42314	1.7657
H	7.16499	-0.0602326	1.72067
H	5.5956	0.135511	2.57859
N	7.32271	-0.0572079	-1.10456
C	8.01431	-0.585703	-2.25719
H	7.81095	0.579769	-0.517226
H	9.04778	-0.178706	-2.3165
H	7.47712	-0.316145	-3.1953
H	8.07736	-1.69664	-2.20252
