44
  This energy is -1.7168 and Call times are: 93920
C	-0.680729	2.65731	-2.14196
C	0.262512	1.76176	-1.43525
O	1.45414	1.75255	-1.71156
H	-0.127656	3.24136	-2.90934
H	-1.15054	3.36177	-1.42379
H	-1.47087	2.06077	-2.64486
N	-0.260305	0.974074	-0.492605
C	0.52383	0.0192847	0.250408
C	-0.386179	-1.12325	0.660347
O	-1.60255	-1.04929	0.496994
H	-1.2388	0.963534	-0.307396
H	1.28928	-0.393565	-0.394781
C	1.16079	0.677171	1.49408
H	0.375391	1.09159	2.1615
H	1.77843	-0.0444448	2.06705
H	1.8161	1.51528	1.17085
N	0.187588	-2.21739	1.19856
C	-0.597959	-3.35622	1.61348
H	1.17386	-2.26028	1.31898
H	0.0556065	-4.15397	2.03023
H	-1.16153	-3.77993	0.750851
H	-1.3344	-3.0617	2.39582
C	9.69171	0.843247	0.484402
C	8.26978	0.863454	0.895317
O	7.93734	1.25364	2.00602
H	10.3223	1.20396	1.32585
H	9.84647	1.50797	-0.391345
H	9.99961	-0.190935	0.222219
N	7.38503	0.433459	-0.00730036
C	5.97088	0.353871	0.26176
C	5.38912	-0.758237	-0.590493
O	6.0641	-1.30235	-1.4623
H	7.67464	0.0804698	-0.892392
H	5.81936	0.0789496	1.29814
C	5.27358	1.6962	-0.049975
H	5.41983	1.97346	-1.1157
H	4.18648	1.65198	0.166293
H	5.72054	2.49672	0.579092
N	4.11601	-1.12917	-0.350455
C	3.47988	-2.18192	-1.10757
H	3.58716	-0.679884	0.36196
H	2.43469	-2.33914	-0.76103
H	4.03566	-3.14047	-0.99102
H	3.45539	-1.92669	-2.19173
