44
  This energy is -4.065 and Call times are: 92661
C	-1.90688	1.29814	2.60602
C	-0.827382	0.426933	2.08946
O	-0.0304325	-0.10993	2.84647
H	-1.82781	1.36382	3.71296
H	-2.89905	0.876122	2.34101
H	-1.81308	2.31843	2.17788
N	-0.776297	0.267245	0.764972
C	0.242714	-0.515862	0.111581
C	0.456349	0.0516471	-1.27905
O	-0.29829	0.910394	-1.73158
H	-1.40692	0.743544	0.158898
H	1.17587	-0.408905	0.650484
C	-0.169678	-2.0021	0.0324152
H	-1.1215	-2.11341	-0.529448
H	0.612892	-2.61795	-0.456291
H	-0.328363	-2.39421	1.06072
N	1.50274	-0.412776	-1.98996
C	1.7879	0.072516	-3.32013
H	2.1046	-1.10474	-1.60522
H	2.68769	-0.430608	-3.73782
H	1.97535	1.17067	-3.3058
H	0.928763	-0.122183	-4.00213
C	7.42995	2.6691	-1.34923
C	6.70821	2.01437	-0.234976
O	6.7493	2.46925	0.899841
H	7.97398	3.55806	-0.962412
H	6.71176	2.99859	-2.12922
H	8.16345	1.96525	-1.79606
N	6.0212	0.911003	-0.539925
C	5.3042	0.140306	0.445211
C	5.26386	-1.30283	-0.0209558
O	5.64294	-1.61102	-1.14924
H	6.03071	0.529979	-1.46003
H	5.84857	0.16188	1.38107
C	3.87281	0.687088	0.638564
H	3.31048	0.65536	-0.318945
H	3.31507	0.110578	1.40478
H	3.92655	1.74646	0.971986
N	4.80772	-2.22764	0.846611
C	4.73814	-3.62635	0.49315
H	4.50927	-1.95948	1.75661
H	4.337	-4.22637	1.33949
H	5.74906	-4.01695	0.234794
H	4.07431	-3.77632	-0.388883
