44
  This energy is -3.8835 and Call times are: 91963
C	0.176013	-1.14014	3.28356
C	-0.171413	-0.11054	2.27839
O	-0.841605	0.867467	2.57965
H	-0.275524	-0.865662	4.26165
H	1.27821	-1.20317	3.40162
H	-0.219169	-2.12948	2.97032
N	0.283287	-0.313284	1.03964
C	-0.00882897	0.57824	-0.0550856
C	0.0073515	-0.228839	-1.33958
O	0.400797	-1.39369	-1.34654
H	0.792936	-1.13485	0.800558
H	-1.00948	0.974588	0.0642507
C	1.02337	1.72505	-0.123129
H	2.04894	1.3194	-0.256135
H	0.801261	2.42614	-0.953591
H	0.999728	2.29713	0.830035
N	-0.431122	0.373871	-2.4623
C	-0.457511	-0.317255	-3.7303
H	-0.749432	1.31571	-2.43593
H	-0.850631	0.346328	-4.53176
H	-1.10801	-1.21989	-3.67219
H	0.566443	-0.64767	-4.01924
C	4.61146	2.99494	1.68911
C	4.8418	1.53284	1.66976
O	5.09996	0.919074	2.69595
H	4.7318	3.37199	2.72796
H	3.58282	3.22494	1.3402
H	5.34709	3.50692	1.03352
N	4.75404	0.933936	0.479807
C	4.9947	-0.475534	0.295337
C	5.50705	-0.687026	-1.11688
O	5.49753	0.231269	-1.9344
H	4.58356	1.45337	-0.352649
H	5.77582	-0.796281	0.973276
C	3.70448	-1.291	0.531062
H	2.90608	-0.969569	-0.171285
H	3.88	-2.3791	0.405553
H	3.34323	-1.11481	1.56778
N	5.97726	-1.90921	-1.43496
C	6.49022	-2.20228	-2.75297
H	5.98056	-2.63839	-0.758674
H	6.82931	-3.25972	-2.81683
H	7.35462	-1.54191	-2.99382
H	5.70475	-2.03845	-3.52584
