44
  This energy is -1.9427 and Call times are: 91781
C	0.402111	-3.40858	-0.576684
C	0.0998845	-2.03534	-1.03928
O	0.0260914	-1.77083	-2.23134
H	0.550177	-4.06899	-1.45862
H	-0.440543	-3.8023	0.0296669
H	1.32956	-3.41125	0.0339916
N	-0.082337	-1.1156	-0.0888842
C	-0.340795	0.271711	-0.384065
C	0.193493	1.10707	0.764091
O	0.586964	0.574944	1.8003
H	0.021385	-1.3375	0.87645
H	0.208519	0.556173	-1.27287
C	-1.85236	0.5221	-0.578309
H	-2.41521	0.24032	0.337025
H	-2.06303	1.58409	-0.819818
H	-2.22333	-0.105222	-1.41807
N	0.227525	2.44439	0.601457
C	0.724633	3.31944	1.63749
H	-0.0914054	2.85618	-0.245766
H	0.671205	4.38224	1.31372
H	1.78553	3.07947	1.87872
H	0.12455	3.20595	2.56924
C	5.72501	-3.39817	0.198962
C	5.63586	-2.0474	0.797829
O	5.74492	-1.88169	2.00492
H	5.87695	-4.14815	1.00537
H	6.58204	-3.44884	-0.505082
H	4.7865	-3.63894	-0.34353
N	5.42964	-1.03553	-0.0483201
C	5.27783	0.329762	0.389286
C	4.39954	1.05318	-0.614134
O	4.08595	0.5196	-1.67652
H	5.30208	-1.19088	-1.02374
H	4.76049	0.344576	1.34048
C	6.65085	1.02675	0.508651
H	7.17749	1.02114	-0.46944
H	6.54834	2.07453	0.858175
H	7.27951	0.475958	1.24197
N	3.97292	2.2907	-0.293884
C	3.12896	3.05324	-1.18408
H	4.23384	2.70409	0.572196
H	2.88572	4.04465	-0.742298
H	2.17443	2.51285	-1.37932
H	3.63747	3.21982	-2.16122
