44
  This energy is 0.1686 and Call times are: 91420
C	3.21754	1.01106	-0.858996
C	1.94569	1.19641	-0.124707
O	1.83992	2.03951	0.7553
H	3.97747	1.71857	-0.461745
H	3.06822	1.21391	-1.94034
H	3.58862	-0.0270245	-0.72565
N	0.935971	0.396497	-0.475382
C	-0.349073	0.429118	0.177426
C	-0.964513	-0.954075	0.0796242
O	-0.451607	-1.8234	-0.622462
H	1.04961	-0.312632	-1.16537
H	-0.210086	0.646709	1.22908
C	-1.27308	1.48031	-0.475601
H	-1.42448	1.25159	-1.55208
H	-2.26093	1.52478	0.0270811
H	-0.799221	2.48331	-0.399493
N	-2.08206	-1.19313	0.793741
C	-2.73492	-2.48125	0.76729
H	-2.47995	-0.478316	1.35925
H	-3.63623	-2.47878	1.4191
H	-2.04485	-3.27879	1.12646
H	-3.05201	-2.73999	-0.26888
C	5.33761	-1.56922	2.90988
C	5.43791	-0.501612	1.88943
O	6.16335	0.468847	2.05782
H	5.98329	-1.31029	3.77701
H	5.67709	-2.5374	2.48545
H	4.28825	-1.66684	3.2597
N	4.69654	-0.659588	0.790434
C	4.65576	0.31541	-0.270826
C	3.30081	0.222312	-0.946842
O	2.52372	-0.69143	-0.676805
H	4.07981	-1.43457	0.685966
H	4.73717	1.30851	0.153141
C	5.78821	0.0677338	-1.29135
H	5.699	-0.947068	-1.73437
H	5.77599	0.820385	-2.10614
H	6.76986	0.132742	-0.773209
N	2.98153	1.17796	-1.84173
C	1.71212	1.17455	-2.53074
H	3.62182	1.91158	-2.04396
H	1.63867	2.04121	-3.2241
H	0.870288	1.23525	-1.80347
H	1.58927	0.239454	-3.12374
