44
  This energy is 0.8547 and Call times are: 85435
C	0.0832537	0.0577549	3.47885
C	-0.464474	-0.438809	2.19645
O	-1.21678	-1.40273	2.16037
H	-0.286015	-0.58322	4.30872
H	-0.247406	1.10254	3.65727
H	1.1929	0.0193003	3.46152
N	-0.0903186	0.21934	1.0968
C	-0.506359	-0.17192	-0.226977
C	0.569606	0.256574	-1.2069
O	1.50052	0.97412	-0.846
H	0.555056	0.976735	1.13816
H	-0.575229	-1.25153	-0.275292
C	-1.86056	0.474061	-0.593141
H	-1.78758	1.58184	-0.553983
H	-2.19847	0.169442	-1.60485
H	-2.63092	0.15303	0.141599
N	0.470237	-0.183835	-2.47662
C	1.45034	0.167868	-3.47757
H	-0.288032	-0.767001	-2.74868
H	1.19372	-0.291295	-4.45764
H	2.46271	-0.188082	-3.17812
H	1.49807	1.27304	-3.60968
C	6.28902	2.01374	1.64833
C	6.6432	1.00951	0.62011
O	5.77844	0.392411	0.0136534
H	5.18294	2.06207	1.74887
H	6.66701	3.01472	1.35184
H	6.72683	1.72888	2.62825
N	7.94624	0.819629	0.400057
C	8.44593	-0.153965	-0.538546
C	9.81189	-0.611763	-0.0629874
O	10.3773	-0.0434024	0.86921
H	8.63879	1.29998	0.930619
H	7.79606	-1.02015	-0.534752
C	8.54005	0.446254	-1.95845
H	9.21495	1.32859	-1.96501
H	8.91047	-0.297855	-2.69303
H	7.53076	0.781679	-2.28274
N	10.373	-1.66315	-0.692082
C	11.6679	-2.17255	-0.304967
H	9.89826	-2.11256	-1.44157
H	11.9559	-3.03873	-0.940616
H	11.657	-2.50618	0.75798
H	12.4482	-1.38451	-0.41147
