44
  This energy is -4.5947 and Call times are: 87473
C	-2.90988	1.61127	-1.02423
C	-1.47343	1.29045	-1.18171
O	-0.86745	1.58435	-2.2029
H	-3.27893	2.10709	-1.94828
H	-3.05653	2.29847	-0.164581
H	-3.49364	0.681448	-0.857675
N	-0.888636	0.667249	-0.156027
C	0.491834	0.252113	-0.178919
C	0.635641	-0.961821	0.719546
O	-0.291631	-1.32504	1.44062
H	-1.40502	0.398074	0.651911
H	0.755435	-0.0565694	-1.18284
C	1.41861	1.39172	0.298184
H	1.15542	1.70158	1.33199
H	2.48548	1.08902	0.271929
H	1.29091	2.27217	-0.368785
N	1.8077	-1.62623	0.690049
C	2.03425	-2.79597	1.50648
H	2.5448	-1.3195	0.0970357
H	3.05755	-3.19915	1.34059
H	1.29839	-3.59541	1.26015
H	1.9258	-2.54802	2.58718
C	4.6558	0.913053	-3.23721
C	5.34928	0.023533	-2.27856
O	5.81813	-1.0486	-2.63513
H	4.64088	0.432413	-4.23951
H	5.18852	1.8843	-3.31228
H	3.61017	1.0897	-2.90777
N	5.42843	0.456159	-1.01803
C	6.03512	-0.317502	0.0364573
C	5.36956	0.0633551	1.34548
O	4.59316	1.01494	1.40375
H	5.00609	1.31235	-0.734436
H	5.83694	-1.36863	-0.132318
C	7.55589	-0.0575477	0.106504
H	7.75955	1.01895	0.290145
H	8.03683	-0.65805	0.905641
H	8.02087	-0.335744	-0.864445
N	5.65405	-0.681894	2.43161
C	5.06386	-0.39788	3.71893
H	6.28157	-1.45046	2.36379
H	5.42178	-1.12167	4.48395
H	3.95307	-0.465337	3.66526
H	5.33143	0.629741	4.05589
