44
  This energy is -4.8104 and Call times are: 84365
C	-1.81138	0.965984	2.81042
C	-1.39296	1.15105	1.40265
O	-1.95682	1.95704	0.67544
H	-2.67121	1.63586	3.02912
H	-0.974821	1.21991	3.49485
H	-2.12273	-0.0860257	2.98197
N	-0.378108	0.393169	0.980659
C	0.112919	0.42961	-0.374378
C	0.695894	-0.931904	-0.702973
O	0.842576	-1.78223	0.172893
H	0.0439273	-0.287587	1.57254
H	-0.716254	0.597158	-1.05042
C	1.18155	1.53158	-0.544481
H	2.03725	1.35432	0.141365
H	1.5575	1.57892	-1.58705
H	0.735148	2.51793	-0.291148
N	1.03607	-1.17373	-1.98431
C	1.59307	-2.44248	-2.39197
H	0.906081	-0.474619	-2.6796
H	1.8062	-2.44584	-3.48366
H	0.883248	-3.27228	-2.17092
H	2.54366	-2.64729	-1.84831
C	4.28028	3.05008	-1.29053
C	4.5833	1.60835	-1.4346
O	4.24854	0.987982	-2.43434
H	3.7241	3.39988	-2.18728
H	5.2217	3.632	-1.20189
H	3.65391	3.22131	-0.389753
N	5.23322	1.03421	-0.419539
C	5.5599	-0.369812	-0.395795
C	5.61292	-0.818666	1.05241
O	5.55831	0.000189091	1.96794
H	5.46285	1.54288	0.405312
H	4.76788	-0.929062	-0.878044
C	6.91187	-0.63356	-1.09427
H	7.72651	-0.0682872	-0.593389
H	7.16797	-1.71288	-1.09478
H	6.85258	-0.290201	-2.15017
N	5.71284	-2.14065	1.29403
C	5.76425	-2.66123	2.64033
H	5.75161	-2.7881	0.540117
H	5.8457	-3.77051	2.6302
H	4.84493	-2.38247	3.20462
H	6.64321	-2.24991	3.1875
