44
  This energy is 0.1187 and Call times are: 94240
C	-0.598385	-1.48887	3.08835
C	-0.787726	-0.393109	2.11131
O	-1.64358	0.464491	2.27997
H	-1.33985	-1.38088	3.9096
H	0.423978	-1.44506	3.51916
H	-0.749482	-2.47204	2.59476
N	0.020104	-0.399578	1.04841
C	-0.0725319	0.576313	-0.00875933
C	0.414863	-0.0691056	-1.29228
O	0.950909	-1.17551	-1.27676
H	0.684463	-1.12742	0.904407
H	-1.11104	0.844956	-0.156937
C	0.769041	1.82858	0.321119
H	1.83634	1.55505	0.462842
H	0.694874	2.5933	-0.479024
H	0.40001	2.27977	1.26801
N	0.230855	0.609015	-2.44221
C	0.657218	0.0715234	-3.71323
H	-0.20857	1.50116	-2.43506
H	0.417642	0.777252	-4.53892
H	0.147348	-0.897048	-3.92102
H	1.75644	-0.109744	-3.7145
C	1.73786	0.368443	-1.51379
C	2.61758	-0.188942	-0.461861
O	2.15265	-0.7566	0.51692
H	0.67597	0.192298	-1.23589
H	1.94199	-0.127645	-2.48589
H	1.90649	1.4614	-1.61418
N	3.93117	-0.034132	-0.643289
C	4.91019	-0.484857	0.314268
C	6.13049	0.40918	0.199574
O	6.23058	1.22379	-0.715905
H	4.29295	0.466182	-1.42473
H	4.51391	-0.362991	1.31463
C	5.2932	-1.95916	0.0593554
H	5.70959	-2.08282	-0.963076
H	6.03617	-2.32217	0.798768
H	4.38385	-2.59387	0.140464
N	7.08905	0.282248	1.13822
C	8.28327	1.09429	1.11367
H	6.98822	-0.379656	1.8736
H	8.94847	0.841355	1.96853
H	8.02421	2.17589	1.17928
H	8.84978	0.931711	0.168272
