44
  This energy is -3.3122 and Call times are: 94657
C	0.442562	-3.1277	1.46093
C	0.0113593	-2.26202	0.3403
O	-0.269135	-2.73429	-0.75272
H	0.470289	-4.18503	1.11863
H	-0.271344	-3.04247	2.30699
H	1.4574	-2.83395	1.80284
N	-0.0494893	-0.952246	0.591622
C	-0.410507	0.0192412	-0.410594
C	0.270846	1.33011	-0.0657432
O	0.851736	1.47451	1.00824
H	0.221299	-0.578818	1.47428
H	-0.0277543	-0.300118	-1.37192
C	-1.94247	0.205072	-0.472238
H	-2.33429	0.542857	0.510825
H	-2.23403	0.940531	-1.24981
H	-2.42062	-0.768212	-0.718077
N	0.222006	2.31949	-0.979402
C	0.846565	3.59987	-0.741198
H	-0.249234	2.18235	-1.84438
H	0.696339	4.27836	-1.60971
H	1.94176	3.47816	-0.576877
H	0.413775	4.08618	0.162869
C	8.33064	2.33496	-0.0317627
C	7.16882	1.68535	0.615808
O	6.90388	1.88974	1.79243
H	8.86167	2.96558	0.714017
H	7.99095	2.97885	-0.870068
H	9.033	1.56622	-0.417515
N	6.43948	0.872235	-0.151842
C	5.30497	0.136102	0.347709
C	5.16642	-1.13295	-0.471976
O	5.84353	-1.30641	-1.48348
H	6.69165	0.68405	-1.09675
H	5.49438	-0.160444	1.37182
C	4.0158	0.98185	0.258394
H	3.81531	1.27747	-0.79349
H	3.13745	0.431052	0.652925
H	4.14276	1.90897	0.858943
N	4.28497	-2.05915	-0.0462905
C	4.0892	-3.30014	-0.758879
H	3.74911	-1.90253	0.776752
H	3.32409	-3.92836	-0.251745
H	5.04017	-3.87843	-0.809176
H	3.74816	-3.10519	-1.80139
