44
  This energy is -3.79 and Call times are: 93159
C	0.551372	3.27107	-1.05297
C	1.03599	1.95722	-0.573325
O	2.22607	1.67499	-0.595342
H	1.41427	3.87059	-1.41611
H	0.0544107	3.82078	-0.226173
H	-0.166789	3.1323	-1.88848
N	0.10717	1.11016	-0.123705
C	0.420204	-0.220223	0.335267
C	-0.790767	-1.10134	0.0929012
O	-1.86259	-0.614875	-0.262451
H	-0.861805	1.33875	-0.150199
H	1.23384	-0.620187	-0.25689
C	0.793534	-0.213229	1.83387
H	-0.0448301	0.187181	2.44285
H	1.05015	-1.22989	2.19593
H	1.67698	0.443913	1.98894
N	-0.644222	-2.42881	0.272784
C	-1.73972	-3.34587	0.0604845
H	0.231966	-2.80409	0.556564
H	-1.42045	-4.39266	0.259263
H	-2.10535	-3.28449	-0.990144
H	-2.59125	-3.10433	0.737026
C	6.8737	0.913983	3.10726
C	6.64996	1.16448	1.66561
O	6.88666	2.25696	1.16875
H	7.24558	1.84463	3.58836
H	7.62954	0.11219	3.24358
H	5.92298	0.612319	3.59531
N	6.17833	0.139836	0.951428
C	5.87009	0.243267	-0.453152
C	4.76594	-0.747929	-0.769318
O	4.40604	-1.57686	0.0643766
H	5.95186	-0.731087	1.37811
H	5.48443	1.23329	-0.662277
C	7.11913	-0.0445215	-1.31473
H	7.50897	-1.06405	-1.10825
H	6.89805	0.0455861	-2.39802
H	7.91663	0.687558	-1.06098
N	4.19375	-0.679	-1.98746
C	3.13167	-1.57759	-2.37563
H	4.49575	0.00125191	-2.6471
H	2.79369	-1.36203	-3.4132
H	2.25764	-1.47076	-1.69303
H	3.47659	-2.63601	-2.33179
