44
  This energy is 0.1043 and Call times are: 89326
C	1.31434	1.81993	2.65952
C	1.37406	1.31746	1.26844
O	2.19647	1.7512	0.473507
H	2.08659	2.60735	2.79908
H	1.51104	0.993044	3.37388
H	0.314467	2.25659	2.86608
N	0.486084	0.376644	0.93867
C	0.393159	-0.178509	-0.388632
C	-1.04069	-0.617707	-0.618299
O	-1.85257	-0.625414	0.305014
H	-0.20374	0.063044	1.58494
H	0.614325	0.593528	-1.11505
C	1.35857	-1.37231	-0.556152
H	1.12536	-2.16911	0.181924
H	1.30644	-1.7998	-1.57843
H	2.40084	-1.02953	-0.375802
N	-1.38892	-0.988049	-1.86634
C	-2.73218	-1.41574	-2.18082
H	-0.719014	-0.971228	-2.6012
H	-2.81924	-1.6782	-3.2582
H	-3.46458	-0.606571	-1.95693
H	-3.01109	-2.31026	-1.57817
C	5.86183	0.69977	2.55092
C	5.16361	1.05426	1.29474
O	5.2268	2.18523	0.832863
H	6.38313	1.59803	2.94744
H	6.61203	-0.096219	2.36026
H	5.13101	0.344985	3.30794
N	4.46846	0.078074	0.70634
C	3.70209	0.281618	-0.497737
C	2.54767	-0.702703	-0.495701
O	2.48538	-1.59856	0.344098
H	4.39296	-0.826521	1.11605
H	3.2769	1.27746	-0.486492
C	4.5814	0.0823148	-1.75166
H	5.00936	-0.942669	-1.76908
H	4.00608	0.249905	-2.68517
H	5.42398	0.807463	-1.72808
N	1.59615	-0.552403	-1.43805
C	0.457614	-1.4382	-1.51066
H	1.66185	0.181043	-2.10649
H	-0.211008	-1.1511	-2.35194
H	-0.131416	-1.39902	-0.565781
H	0.787728	-2.49049	-1.66829
