44
  This energy is -6.8705 and Call times are: 89695
C	-1.09586	1.93978	-2.67376
C	-0.27566	1.74127	-1.45762
O	0.599904	2.53737	-1.14773
H	-0.761466	2.86263	-3.1957
H	-2.16619	2.04966	-2.39978
H	-0.977198	1.07539	-3.36067
N	-0.544879	0.653969	-0.731211
C	0.196733	0.303674	0.45448
C	0.158545	-1.20517	0.607707
O	-0.568039	-1.89262	-0.107282
H	-1.23301	-0.00622776	-1.01842
H	1.23336	0.58858	0.324635
C	-0.401334	0.989944	1.70211
H	-1.46172	0.689756	1.84179
H	0.16939	0.739094	2.61965
H	-0.370418	2.09288	1.56456
N	0.952579	-1.75874	1.54531
C	0.987115	-3.18673	1.75939
H	1.53658	-1.18639	2.11137
H	1.70095	-3.44537	2.57227
H	1.30571	-3.71536	0.831853
H	-0.0210095	-3.56602	2.04394
C	4.06369	-0.771575	3.391
C	3.87395	0.162347	2.25832
O	3.27516	1.21922	2.40281
H	3.57657	-0.352474	4.29814
H	5.14614	-0.9099	3.59574
H	3.60326	-1.75473	3.15758
N	4.38726	-0.215484	1.08524
C	4.246	0.56709	-0.117335
C	4.27279	-0.378858	-1.3031
O	4.5611	-1.56502	-1.15608
H	4.83636	-1.09739	0.9738
H	3.27883	1.05413	-0.115036
C	5.37799	1.61143	-0.232107
H	6.36998	1.1116	-0.245124
H	5.27251	2.22967	-1.14708
H	5.34416	2.28775	0.649814
N	3.96224	0.1264	-2.51317
C	3.95595	-0.699402	-3.69816
H	3.72762	1.08784	-2.61151
H	3.6753	-0.101172	-4.59291
H	3.22563	-1.53399	-3.59142
H	4.96298	-1.14225	-3.87398
