44
  This energy is -6.5163 and Call times are: 92220
C	0.231378	3.46992	-0.137125
C	-0.140761	2.21493	0.554009
O	-0.452514	2.2122	1.73689
H	0.187888	4.31384	0.585228
H	-0.475079	3.67247	-0.969372
H	1.26372	3.39381	-0.539091
N	-0.113351	1.10147	-0.182078
C	-0.408333	-0.201078	0.360979
C	0.359684	-1.23354	-0.442589
O	0.949098	-0.917511	-1.4743
H	0.182044	1.11375	-1.13311
H	-0.04804	-0.252861	1.38085
C	-1.92433	-0.490978	0.306798
H	-2.29244	-0.448369	-0.740447
H	-2.16587	-1.48545	0.73484
H	-2.46689	0.281239	0.894726
N	0.377387	-2.49915	0.0199634
C	1.08667	-3.54806	-0.674933
H	-0.102113	-2.73469	0.858815
H	0.982316	-4.51625	-0.13741
H	2.17122	-3.30482	-0.751477
H	0.687679	-3.67516	-1.7073
C	4.50682	-2.03404	-2.81238
C	4.82037	-0.793397	-2.06831
O	5.68057	-0.0185751	-2.46343
H	5.16909	-2.10586	-3.70237
H	3.44961	-2.0202	-3.15129
H	4.676	-2.92101	-2.16604
N	4.11812	-0.57626	-0.953818
C	4.33965	0.564982	-0.101149
C	3.95889	0.177987	1.31548
O	3.39209	-0.888399	1.54626
H	3.44985	-1.23651	-0.623145
H	5.3949	0.807996	-0.0965725
C	3.5069	1.77673	-0.573826
H	2.42348	1.53135	-0.568643
H	3.67936	2.66598	0.0664976
H	3.7965	2.03726	-1.61527
N	4.27162	1.03855	2.30424
C	3.9535	0.752719	3.68383
H	4.73392	1.89465	2.09824
H	4.29129	1.58093	4.34504
H	4.45272	-0.186425	4.01559
H	2.85467	0.624646	3.81543
