44
  This energy is -3.9155 and Call times are: 87312
C	0.200875	-3.1113	-1.54665
C	-0.41772	-1.77706	-1.37849
O	-1.22771	-1.34823	-2.1887
H	-0.178999	-3.57704	-2.48189
H	-0.0599731	-3.76504	-0.687969
H	1.305	-3.01524	-1.6158
N	-0.0407993	-1.07928	-0.304524
C	-0.523012	0.251181	-0.029002
C	0.544105	0.987291	0.759007
O	1.52805	0.392495	1.19465
H	0.650195	-1.4247	0.324027
H	-0.658577	0.782519	-0.962775
C	-1.84699	0.204747	0.764834
H	-1.70591	-0.331072	1.72766
H	-2.23576	1.22298	0.971207
H	-2.61078	-0.345228	0.172804
N	0.376618	2.31017	0.953853
C	1.34276	3.09452	1.68703
H	-0.424051	2.77461	0.590122
H	1.02679	4.15976	1.73853
H	2.34106	3.0485	1.19453
H	1.45285	2.71056	2.72703
C	2.72575	0.133442	-2.7915
C	3.79173	-0.508096	-1.98946
O	4.19162	-1.63372	-2.25304
H	2.3928	-0.567526	-3.58751
H	3.10978	1.06055	-3.26663
H	1.85759	0.381818	-2.14521
N	4.2814	0.206362	-0.973503
C	5.29123	-0.300187	-0.0778354
C	5.11096	0.375104	1.26866
O	4.32844	1.31395	1.40262
H	3.91712	1.105	-0.746325
H	5.13717	-1.36174	0.0704919
C	6.70683	-0.030816	-0.633484
H	6.86914	1.05887	-0.7759
H	7.493	-0.428494	0.0405385
H	6.81352	-0.527527	-1.62254
N	5.83038	-0.0964946	2.30598
C	5.72068	0.479573	3.62594
H	6.45534	-0.859607	2.17886
H	6.39095	-0.0459659	4.34133
H	4.67524	0.401283	4.00303
H	6.00175	1.55747	3.60898
