44
  This energy is -1.6289 and Call times are: 88099
C	1.62748	-0.796694	-2.97141
C	0.399543	-0.528892	-2.18936
O	-0.680467	-0.370081	-2.74142
H	1.37914	-0.801153	-4.05501
H	2.04894	-1.78606	-2.69523
H	2.38352	-0.00639778	-2.77926
N	0.541641	-0.469831	-0.863205
C	-0.553311	-0.174889	0.0271027
C	0.0113771	0.495182	1.26552
O	1.22525	0.552739	1.45238
H	1.43438	-0.56052	-0.431158
H	-1.21913	0.534552	-0.448308
C	-1.3165	-1.4623	0.408358
H	-0.636274	-2.18623	0.905604
H	-2.17052	-1.24668	1.08266
H	-1.71402	-1.93997	-0.513685
N	-0.862819	1.02821	2.1417
C	-0.417605	1.69058	3.34555
H	-1.84117	0.9753	1.97114
H	-1.28543	2.06114	3.93443
H	0.234362	2.55935	3.09767
H	0.167665	0.991223	3.98547
C	3.99821	2.61234	2.15535
C	3.9678	1.96472	0.824636
O	3.24567	2.38637	-0.0681949
H	3.28188	3.4624	2.16657
H	5.01699	2.99802	2.37007
H	3.70519	1.88507	2.94166
N	4.76404	0.905537	0.661775
C	4.81177	0.145362	-0.562321
C	5.19789	-1.28094	-0.218588
O	5.56789	-1.57724	0.915877
H	5.31557	0.549342	1.41064
H	3.8229	0.114666	-1.00255
C	5.82667	0.757397	-1.5526
H	6.84332	0.779432	-1.1054
H	5.86257	0.189038	-2.50454
H	5.52883	1.80345	-1.78369
N	5.11185	-2.20482	-1.19586
C	5.45326	-3.58834	-0.960293
H	4.80644	-1.94665	-2.10643
H	5.31689	-4.19012	-1.88576
H	4.80794	-4.02175	-0.162172
H	6.51458	-3.68133	-0.634565
