44
  This energy is -2.4964 and Call times are: 93864
C	-1.02827	-0.682589	3.25414
C	-1.31377	-0.370904	1.83552
O	-2.44751	-0.457027	1.38428
H	-1.96832	-0.996923	3.7575
H	-0.627221	0.21508	3.76998
H	-0.289916	-1.50912	3.32325
N	-0.272037	0.00248125	1.08868
C	-0.385238	0.296296	-0.318236
C	0.946757	-0.0138529	-0.974856
O	1.93623	-0.28201	-0.296072
H	0.651653	0.0283571	1.46016
H	-1.124	-0.359524	-0.761815
C	-0.768819	1.77522	-0.543855
H	-0.00583402	2.44845	-0.0981537
H	-0.872623	2.01052	-1.62292
H	-1.74251	1.98154	-0.0481808
N	1.00021	0.00760543	-2.32123
C	2.2232	-0.279912	-3.03383
H	0.188025	0.222738	-2.85334
H	2.06346	-0.211884	-4.13251
H	2.58485	-1.30632	-2.79515
H	3.02251	0.442417	-2.75014
C	4.23054	-2.6499	0.619854
C	5.36212	-1.77536	1.00179
O	5.82595	-1.79835	2.13349
H	3.91813	-3.25199	1.50062
H	4.53715	-3.33826	-0.195561
H	3.36976	-2.03576	0.28079
N	5.83718	-0.969561	0.0492213
C	6.907	-0.0315115	0.281843
C	6.72739	1.13626	-0.669804
O	5.88991	1.09289	-1.56895
H	5.42252	-0.932795	-0.85552
H	6.82777	0.358086	1.2891
C	8.28282	-0.699184	0.0660862
H	8.36864	-1.08972	-0.970331
H	9.11515	0.00919512	0.255689
H	8.38914	-1.5556	0.767223
N	7.50997	2.21798	-0.486907
C	7.40637	3.37885	-1.34004
H	8.17903	2.236	0.248692
H	8.13284	4.1616	-1.02895
H	6.38131	3.8125	-1.29047
H	7.61553	3.1075	-2.40012
