44
  This energy is -2.9216 and Call times are: 86866
C	-0.0892531	-2.3211	-2.59176
C	-0.368674	-1.91472	-1.19608
O	-1.0833	-2.59239	-0.470493
H	-0.630735	-3.2661	-2.81455
H	0.999381	-2.48935	-2.73072
H	-0.434343	-1.53467	-3.2957
N	0.197357	-0.77784	-0.784381
C	-0.0161852	-0.231438	0.532587
C	0.12993	1.27626	0.448527
O	0.547024	1.8124	-0.576311
H	0.74332	-0.216098	-1.39939
H	-1.03161	-0.440155	0.845598
C	0.9935	-0.817776	1.54352
H	2.03514	-0.594824	1.22839
H	0.830477	-0.415231	2.56426
H	0.874055	-1.92256	1.58272
N	-0.220798	1.99971	1.53002
C	-0.12098	3.44059	1.54041
H	-0.56005	1.54818	2.34861
H	-0.456072	3.85096	2.51843
H	-0.754822	3.88401	0.738599
H	0.931172	3.76295	1.36664
C	3.50895	3.09513	0.0387621
C	3.98609	1.88382	-0.665674
O	3.63934	1.64115	-1.8134
H	2.82444	3.66245	-0.628654
H	4.36823	3.74459	0.308169
H	2.9582	2.81011	0.959909
N	4.80481	1.08245	0.0198202
C	5.31697	-0.153946	-0.51643
C	5.57353	-1.10103	0.640625
O	5.50144	-0.708579	1.80359
H	5.0454	1.27225	0.967422
H	4.56274	-0.61008	-1.14548
C	6.61568	0.0877418	-1.31654
H	7.39325	0.545997	-0.668912
H	7.01243	-0.85484	-1.74625
H	6.40611	0.78961	-2.15308
N	5.87285	-2.3815	0.345984
C	6.12727	-3.3558	1.38145
H	5.92251	-2.68119	-0.601009
H	6.35485	-4.35033	0.938311
H	5.23977	-3.4632	2.04635
H	6.99345	-3.04499	2.00935
