44
  This energy is -3.5652 and Call times are: 93259
C	-0.929401	1.59976	2.94782
C	-1.11952	1.30351	1.51004
O	-2.14147	1.6351	0.925164
H	-1.8325	2.11688	3.33882
H	-0.0478572	2.25977	3.08927
H	-0.780462	0.657531	3.51625
N	-0.12206	0.65912	0.899945
C	-0.179502	0.263948	-0.48537
C	0.680823	-0.973299	-0.660345
O	1.40605	-1.36996	0.249833
H	0.686015	0.35963	1.39913
H	-1.19614	-0.0119646	-0.73628
C	0.315372	1.40202	-1.40468
H	1.3619	1.67826	-1.15466
H	0.262948	1.11499	-2.47491
H	-0.323544	2.2995	-1.25413
N	0.612927	-1.62031	-1.84051
C	1.3912	-2.80987	-2.09626
H	0.0171523	-1.28643	-2.56346
H	1.19701	-3.19391	-3.12194
H	1.13375	-3.61197	-1.36713
H	2.48027	-2.59473	-2.00255
C	6.89159	-1.66191	-2.72292
C	5.73544	-1.28025	-1.88102
O	4.58803	-1.49741	-2.24531
H	6.52348	-2.12178	-3.66571
H	7.52775	-2.3983	-2.18834
H	7.49578	-0.764384	-2.97289
N	6.0179	-0.690585	-0.717015
C	4.99863	-0.223967	0.189581
C	5.56282	0.945558	0.974101
O	6.7554	1.23577	0.901684
H	6.95555	-0.483567	-0.452806
H	4.15588	0.146613	-0.380567
C	4.55194	-1.35196	1.14527
H	5.41413	-1.72527	1.73799
H	3.75741	-1.00898	1.83926
H	4.15005	-2.20025	0.549275
N	4.7103	1.65356	1.74088
C	5.1556	2.78635	2.51848
H	3.74803	1.40594	1.78339
H	4.30732	3.23533	3.08067
H	5.59149	3.56983	1.85708
H	5.93727	2.47809	3.24999
