44
  This energy is -2.2583 and Call times are: 91934
C	2.48953	2.43195	0.0237776
C	1.80258	1.26433	0.620362
O	2.29478	0.651051	1.5574
H	3.45611	2.59659	0.547696
H	1.86234	3.34165	0.132459
H	2.69097	2.24854	-1.05273
N	0.630353	0.92502	0.0789509
C	-0.134718	-0.213311	0.523281
C	-0.947514	-0.724535	-0.651268
O	-1.0096	-0.0855573	-1.69987
H	0.262214	1.40884	-0.709883
H	0.542073	-1.00611	0.816641
C	-1.06186	0.169488	1.69764
H	-1.76344	0.975479	1.39401
H	-1.6462	-0.701883	2.05789
H	-0.446421	0.548254	2.5427
N	-1.58688	-1.90164	-0.504111
C	-2.37968	-2.46959	-1.56952
H	-1.52135	-2.40607	0.350485
H	-2.82382	-3.43967	-1.25503
H	-1.75307	-2.64765	-2.47336
H	-3.20757	-1.78041	-1.8537
C	6.27308	0.295714	3.4018
C	6.58464	0.577358	1.98238
O	7.42508	1.41027	1.672
H	6.89192	0.952566	4.05099
H	6.50176	-0.764164	3.64079
H	5.2002	0.497147	3.60534
N	5.89992	-0.122043	1.07442
C	6.06185	0.0715523	-0.345031
C	4.75277	-0.285631	-1.02348
O	3.84126	-0.817744	-0.392836
H	5.1899	-0.767142	1.34194
H	6.25263	1.1189	-0.543246
C	7.21175	-0.801604	-0.893283
H	7.01147	-1.87696	-0.699533
H	7.3555	-0.65111	-1.98287
H	8.15802	-0.528614	-0.377168
N	4.62619	0.0087866	-2.33242
C	3.41488	-0.28917	-3.06051
H	5.37329	0.443068	-2.82468
H	3.50615	0.0286001	-4.12255
H	2.54501	0.241157	-2.60954
H	3.2019	-1.38247	-3.0385
