44
  This energy is 0.1247 and Call times are: 93352
C	-2.78383	1.13917	-1.75079
C	-1.69638	1.33039	-0.764869
O	-1.44329	2.43666	-0.308214
H	-3.25446	2.12138	-1.97363
H	-3.55638	0.455303	-1.34063
H	-2.37641	0.714061	-2.69227
N	-1.01678	0.236967	-0.411401
C	0.0959829	0.271276	0.504649
C	1.03055	-0.871963	0.156602
O	0.70007	-1.72905	-0.660643
H	-1.20774	-0.649779	-0.822596
H	0.646885	1.19275	0.363154
C	-0.388484	0.148883	1.966
H	-0.944645	-0.80124	2.11429
H	0.457996	0.187937	2.68187
H	-1.07706	0.991056	2.19612
N	2.23131	-0.906059	0.767374
C	3.18844	-1.95292	0.495036
H	2.48233	-0.201329	1.42267
H	4.1137	-1.80551	1.09452
H	3.46708	-1.95947	-0.583664
H	2.76208	-2.95072	0.747525
C	5.78206	-1.32638	-3.09841
C	5.47912	-0.518805	-1.89541
O	4.49349	0.204306	-1.85016
H	5.00885	-1.1346	-3.87379
H	5.77655	-2.40736	-2.84502
H	6.77663	-1.04753	-3.50601
N	6.337	-0.62485	-0.877969
C	6.19899	0.131162	0.341848
C	7.58244	0.338441	0.928929
O	8.55881	-0.244463	0.461353
H	7.15687	-1.18624	-0.945212
H	5.79619	1.1097	0.112002
C	5.28872	-0.606492	1.34809
H	5.70701	-1.60621	1.5923
H	5.1634	-0.0279182	2.28621
H	4.28439	-0.754334	0.894445
N	7.69943	1.18661	1.96957
C	8.97691	1.45053	2.5897
H	6.8985	1.65209	2.33139
H	8.86561	2.1744	3.42688
H	9.69193	1.87773	1.84975
H	9.4189	0.511373	2.99438
