44
  This energy is -5.5084 and Call times are: 89120
C	-0.110141	-3.19405	1.37788
C	-0.561801	-1.78582	1.3145
O	-1.54818	-1.40902	1.93215
H	-0.803418	-3.77332	2.02573
H	0.912597	-3.24901	1.80652
H	-0.109381	-3.6418	0.361708
N	0.162021	-0.964261	0.550625
C	-0.17795	0.423211	0.355949
C	0.334978	0.84916	-1.00678
O	1.06565	0.110189	-1.66386
H	0.938296	-1.29486	0.0215028
H	-1.25562	0.528429	0.342309
C	0.438096	1.30312	1.46567
H	1.54448	1.20364	1.47322
H	0.171996	2.37203	1.3347
H	0.0550123	0.9685	2.45442
N	-0.0457774	2.05645	-1.46883
C	0.38822	2.54394	-2.75731
H	-0.640715	2.63846	-0.924412
H	-0.0308913	3.55475	-2.95689
H	0.0531593	1.85898	-3.56962
H	1.49953	2.61056	-2.79839
C	5.03163	-0.420743	3.43367
C	4.67123	0.395958	2.25288
O	4.10078	1.47094	2.37698
H	4.68795	0.0956888	4.35618
H	6.13271	-0.55383	3.4853
H	4.54161	-1.41548	3.37493
N	5.00032	-0.106851	1.06071
C	4.67728	0.551468	-0.180591
C	4.52391	-0.510409	-1.25319
O	4.83191	-1.67969	-1.03041
H	5.42774	-1.00218	0.973786
H	3.72144	1.05074	-0.081956
C	5.77803	1.56156	-0.572116
H	6.75678	1.04811	-0.683733
H	5.53422	2.08511	-1.5192
H	5.87838	2.32446	0.23054
N	4.03258	-0.12615	-2.44774
C	3.84655	-1.06794	-3.52691
H	3.78517	0.823735	-2.60769
H	3.4327	-0.5596	-4.42554
H	3.14147	-1.87626	-3.22565
H	4.81537	-1.54148	-3.80672
