44
  This energy is 0.1024 and Call times are: 84269
C	-2.8255	-1.11378	1.69963
C	-1.59142	-0.300697	1.61544
O	-1.33819	0.554072	2.45309
H	-3.41551	-0.795121	2.58632
H	-2.569	-2.18878	1.80607
H	-3.44176	-0.9696	0.787203
N	-0.78421	-0.55245	0.582282
C	0.430793	0.185721	0.342635
C	0.701311	0.179605	-1.15013
O	0.0368582	-0.524881	-1.9077
H	-1.02404	-1.22306	-0.113866
H	0.286849	1.21693	0.640148
C	1.61638	-0.438977	1.11035
H	1.77114	-1.49369	0.797825
H	2.55499	0.128636	0.94498
H	1.39319	-0.431269	2.1996
N	1.68529	0.976995	-1.61054
C	2.01069	1.04122	-3.01631
H	2.20921	1.54287	-0.982563
H	2.84666	1.75305	-3.19433
H	1.12978	1.38007	-3.6083
H	2.31646	0.0391665	-3.39515
C	10.2009	-0.0594987	-0.938391
C	8.79261	0.339317	-1.15924
O	8.49344	1.15601	-2.01943
H	10.856	0.502373	-1.63915
H	10.3244	-1.14704	-1.12481
H	10.5058	0.173681	0.103611
N	7.88201	-0.237257	-0.371358
C	6.47751	0.0812731	-0.438315
C	5.87489	-0.146353	0.935223
O	6.52478	-0.690701	1.82574
H	8.1453	-0.869482	0.351708
H	6.36029	1.13215	-0.671869
C	5.76369	-0.791063	-1.49413
H	5.8747	-1.86891	-1.24922
H	4.68422	-0.545623	-1.565
H	6.22614	-0.614231	-2.48972
N	4.61197	0.276011	1.14175
C	3.95771	0.107213	2.41832
H	4.10359	0.718007	0.410133
H	2.92484	0.518935	2.38835
H	4.5219	0.634238	3.22157
H	3.89759	-0.971652	2.68957
