44
  This energy is -3.1127 and Call times are: 89079
C	1.23898	-1.29523	-2.98329
C	0.514941	-0.258541	-2.21375
O	0.2158	0.813364	-2.72163
H	1.44475	-0.915536	-4.00768
H	0.623211	-2.21607	-3.05828
H	2.20369	-1.53518	-2.48847
N	0.214746	-0.560175	-0.948329
C	-0.449442	0.362806	-0.0620326
C	-0.0178282	0.0485958	1.35802
O	0.638615	-0.960506	1.60803
H	0.50099	-1.42072	-0.536745
H	-0.120438	1.37041	-0.283691
C	-1.98378	0.251701	-0.198742
H	-2.32294	-0.779118	0.0388011
H	-2.50648	0.967185	0.468635
H	-2.27613	0.47786	-1.24742
N	-0.372227	0.916783	2.32584
C	-0.00161199	0.703433	3.70544
H	-0.899934	1.72987	2.10337
H	-0.38549	1.52655	4.34758
H	1.1066	0.663005	3.8127
H	-0.42008	-0.258482	4.0806
C	3.0938	2.44306	2.21823
C	3.33258	1.93993	0.846733
O	2.87026	2.51609	-0.128314
H	2.45406	3.35096	2.17019
H	4.0575	2.70766	2.70198
H	2.57597	1.67024	2.82459
N	4.07122	0.832855	0.740948
C	4.35315	0.200082	-0.523436
C	4.5504	-1.28368	-0.27621
O	4.62305	-1.72727	0.868193
H	4.40629	0.352171	1.54626
H	3.49537	0.307194	-1.17563
C	5.61105	0.811846	-1.17818
H	6.49354	0.692843	-0.514027
H	5.83066	0.342459	-2.15898
H	5.44725	1.89928	-1.34249
N	4.63363	-2.09116	-1.35188
C	4.81579	-3.51735	-1.21414
H	4.56852	-1.71417	-2.26987
H	4.85987	-4.00638	-2.21221
H	3.97344	-3.9673	-0.640309
H	5.7623	-3.7421	-0.671233
