44
  This energy is -0.2643 and Call times are: 85463
C	-1.3807	3.03507	0.997358
C	-0.738072	2.16512	-0.013268
O	-0.675359	2.49944	-1.1883
H	-1.76844	3.95084	0.500469
H	-0.642607	3.33161	1.77197
H	-2.22731	2.50158	1.47875
N	-0.240184	1.00835	0.429863
C	0.37602	0.0386885	-0.441119
C	0.17789	-1.33689	0.167224
O	-0.276674	-1.4639	1.30255
H	-0.335218	0.731798	1.38189
H	-0.131334	0.0444389	-1.39777
C	1.88001	0.338394	-0.623927
H	2.40291	0.322202	0.35605
H	2.36293	-0.393269	-1.30363
H	2.00139	1.35278	-1.06284
N	0.509178	-2.40607	-0.583192
C	0.350048	-3.75426	-0.0899922
H	0.871645	-2.28328	-1.50113
H	0.676975	-4.49364	-0.853968
H	-0.716325	-3.95751	0.160635
H	0.956921	-3.90999	0.831201
C	9.46091	2.83792	0.123352
C	8.21555	2.10791	0.450948
O	7.41388	2.55488	1.25962
H	9.50869	3.77129	0.72534
H	9.47617	3.10421	-0.954424
H	10.3459	2.21096	0.36157
N	8.02486	0.946804	-0.179816
C	6.88212	0.102921	0.0662655
C	7.28749	-1.33344	-0.205951
O	8.37117	-1.59445	-0.724812
H	8.70607	0.576324	-0.804763
H	6.60841	0.168196	1.11195
C	5.69275	0.509259	-0.831245
H	5.96969	0.432353	-1.90429
H	4.80221	-0.124285	-0.641294
H	5.41842	1.56604	-0.620782
N	6.42335	-2.30489	0.148413
C	6.72557	-3.70079	-0.0667599
H	5.55304	-2.07419	0.5708
H	5.89132	-4.34351	0.291244
H	7.65146	-3.99113	0.4807
H	6.88637	-3.90571	-1.14995
