44
  This energy is -2.8375 and Call times are: 92582
C	0.19797	-3.13914	1.48972
C	-0.104299	-2.26002	0.337803
O	-0.310351	-2.72359	-0.775326
H	0.213484	-4.19752	1.14989
H	-0.580401	-3.02462	2.27315
H	1.19121	-2.88389	1.91565
N	-0.135458	-0.948315	0.584457
C	-0.37367	0.0341032	-0.443488
C	0.326435	1.31856	-0.0415217
O	0.820568	1.4429	1.07745
H	0.0747195	-0.583611	1.48706
H	0.0755787	-0.301889	-1.36973
C	-1.8868	0.278594	-0.632933
H	-2.34619	0.633397	0.314227
H	-2.08374	1.02299	-1.43144
H	-2.37985	-0.67612	-0.918893
N	0.392355	2.30704	-0.955076
C	1.04365	3.56297	-0.664166
H	-0.0097998	2.1862	-1.8566
H	0.992865	4.2448	-1.54153
H	2.11576	3.39958	-0.408891
H	0.555802	4.06759	0.200995
C	3.11816	0.0851995	3.09892
C	4.24416	0.426479	2.20069
O	5.09867	1.23507	2.53595
H	3.20291	0.677885	4.03561
H	3.1456	-0.995163	3.3535
H	2.15118	0.324725	2.60836
N	4.26815	-0.192018	1.01778
C	5.27652	0.0683031	0.020794
C	4.66964	-0.192197	-1.34501
O	3.5617	-0.714298	-1.45267
H	3.54314	-0.816992	0.742768
H	5.55269	1.11475	0.0567867
C	6.51549	-0.826719	0.242431
H	6.23455	-1.90044	0.195113
H	7.30479	-0.625903	-0.510695
H	6.93829	-0.625004	1.25084
N	5.38352	0.176143	-2.427
C	4.88432	-0.0271567	-3.76701
H	6.27633	0.600928	-2.31961
H	5.61593	0.341489	-4.51939
H	3.92414	0.518125	-3.91541
H	4.69991	-1.10916	-3.95783
