44
  This energy is 0.4891 and Call times are: 89187
C	3.01017	0.483648	1.67859
C	2.09853	-0.333935	0.846951
O	2.48746	-1.35599	0.29872
H	4.02152	0.022081	1.67745
H	2.63727	0.529586	2.72337
H	3.08421	1.51241	1.26718
N	0.843944	0.10777	0.731699
C	-0.146544	-0.556665	-0.078252
C	-1.14064	0.484007	-0.558187
O	-1.11538	1.63061	-0.115032
H	0.553136	0.963286	1.1505
H	0.331317	-0.974936	-0.955367
C	-0.865532	-1.66204	0.725769
H	-1.3648	-1.23183	1.62003
H	-1.62107	-2.19039	0.108896
H	-0.117977	-2.40803	1.07363
N	-2.04001	0.10741	-1.48841
C	-3.02123	1.03086	-2.00864
H	-2.04212	-0.82369	-1.83787
H	-3.66896	0.53261	-2.76323
H	-2.52298	1.90102	-2.49429
H	-3.67015	1.41745	-1.18974
C	7.87316	-1.49036	-2.9377
C	8.1137	-0.767746	-1.6684
O	9.24458	-0.6305	-1.22265
H	8.84208	-1.85715	-3.34083
H	7.40806	-0.810997	-3.68262
H	7.20472	-2.35959	-2.76244
N	7.03544	-0.283822	-1.04748
C	7.10586	0.404447	0.217388
C	5.79452	0.1861	0.948325
O	4.83898	-0.342454	0.383274
H	6.1177	-0.439049	-1.40176
H	7.88903	-0.0368985	0.821108
C	7.36612	1.91273	0.0110026
H	6.55742	2.36815	-0.59945
H	7.43625	2.4515	0.978128
H	8.32656	2.04841	-0.532571
N	5.72158	0.583449	2.23394
C	4.51631	0.41141	3.01106
H	6.50664	1.00546	2.67514
H	4.65539	0.8004	4.04381
H	4.24166	-0.666348	3.07653
H	3.6653	0.956678	2.54244
