44
  This energy is 1.0652 and Call times are: 95315
C	-1.25689	-1.76774	-2.72177
C	-0.189478	-0.989719	-2.05359
O	0.936829	-0.92455	-2.52645
H	-0.84562	-2.24345	-3.63852
H	-2.09523	-1.0989	-3.00913
H	-1.63371	-2.56174	-2.04304
N	-0.526217	-0.374058	-0.917832
C	0.414912	0.384539	-0.132105
C	-0.0270603	0.329649	1.31814
O	-1.1174	-0.147567	1.6266
H	-1.43594	-0.470062	-0.52406
H	1.38909	-0.0847338	-0.190415
C	0.488531	1.84778	-0.620721
H	-0.50841	2.33287	-0.551188
H	1.2201	2.43881	-0.0324968
H	0.806061	1.86337	-1.68622
N	0.819545	0.813014	2.24854
C	0.486903	0.797749	3.65399
H	1.69914	1.19144	1.97988
H	1.31073	1.238	4.2579
H	0.313562	-0.245235	4.00529
H	-0.440436	1.38492	3.84482
C	7.12357	0.495267	-2.98274
C	5.88314	0.213627	-2.22568
O	4.7891	0.235312	-2.7725
H	6.8649	0.724995	-4.03923
H	7.79428	-0.389288	-2.96114
H	7.64994	1.36883	-2.54354
N	6.02952	-0.0593708	-0.92705
C	4.91233	-0.311471	-0.0513277
C	5.305	0.114264	1.35086
O	6.46479	0.427721	1.61228
H	6.92277	-0.0330175	-0.487431
H	4.07535	0.305695	-0.35332
C	4.5198	-1.80501	-0.0737791
H	5.37489	-2.4379	0.246082
H	3.65184	-2.00948	0.58603
H	4.244	-2.09644	-1.11077
N	4.33828	0.143318	2.28927
C	4.61704	0.540752	3.64961
H	3.40485	-0.10989	2.05762
H	3.69362	0.499785	4.26836
H	5.01425	1.58119	3.68129
H	5.37672	-0.132909	4.10809
