44
  This energy is -3.7056 and Call times are: 89566
C	-0.554759	2.14857	2.68115
C	-0.943213	1.56314	1.37826
O	-2.05613	1.75097	0.906526
H	-1.41333	2.71834	3.0984
H	0.304747	2.83897	2.54948
H	-0.27662	1.34421	3.39442
N	-0.0180341	0.825926	0.759447
C	-0.262783	0.156653	-0.493841
C	0.621023	-1.075	-0.552806
O	1.49278	-1.26568	0.293009
H	0.869289	0.648352	1.17537
H	-1.29083	-0.182331	-0.522991
C	0.0327955	1.0928	-1.68611
H	1.09021	1.43244	-1.66256
H	-0.165124	0.593481	-2.6567
H	-0.619432	1.99075	-1.61815
N	0.408942	-1.94933	-1.55609
C	1.19731	-3.15216	-1.68982
H	-0.303891	-1.77981	-2.22855
H	0.870784	-3.73988	-2.57592
H	1.09133	-3.79384	-0.785227
H	2.27632	-2.90332	-1.81209
C	5.45262	2.98878	-1.74803
C	5.43392	1.50996	-1.68559
O	5.42433	0.83344	-2.70473
H	5.43775	3.31169	-2.81168
H	6.37308	3.38055	-1.26634
H	4.56074	3.40481	-1.23368
N	5.4259	0.967542	-0.46571
C	5.36464	-0.455768	-0.244372
C	4.68058	-0.698246	1.08786
O	4.43484	0.235689	1.84884
H	5.39251	1.53181	0.354257
H	4.74897	-0.910252	-1.01054
C	6.77905	-1.07598	-0.247611
H	7.40783	-0.617489	0.545143
H	6.74435	-2.17375	-0.09195
H	7.26368	-0.87951	-1.22887
N	4.34778	-1.9667	1.39814
C	3.68903	-2.29278	2.64148
H	4.55116	-2.70849	0.767698
H	3.49926	-3.38658	2.71093
H	2.71257	-1.76202	2.71961
H	4.31711	-1.98982	3.51032
