44
  This energy is 0.1014 and Call times are: 91229
C	-2.28079	1.48672	2.16803
C	-1.54475	1.43656	0.884728
O	-1.84909	2.16654	-0.0484962
H	-3.09527	2.23983	2.0951
H	-1.59506	1.77757	2.9914
H	-2.72735	0.495015	2.39208
N	-0.54385	0.556327	0.808682
C	0.235888	0.361997	-0.388316
C	0.736053	-1.07023	-0.399661
O	0.59838	-1.79321	0.585254
H	-0.334435	-0.0596523	1.56273
H	-0.401818	0.487836	-1.25441
C	1.42171	1.35009	-0.440751
H	2.08199	1.21422	0.442197
H	2.0218	1.21976	-1.36456
H	1.03264	2.39156	-0.423402
N	1.32497	-1.51797	-1.52604
C	1.82684	-2.86824	-1.63125
H	1.42356	-0.919313	-2.31406
H	2.27474	-3.04429	-2.63406
H	1.00535	-3.6055	-1.48001
H	2.60782	-3.05851	-0.859889
C	4.14513	-2.26091	-0.852458
C	4.80461	-1.34746	0.107674
O	4.26284	-1.03585	1.15924
H	3.14823	-2.55271	-0.456348
H	4.758	-3.17603	-0.992798
H	4.00868	-1.75399	-1.83097
N	6.00915	-0.889144	-0.240777
C	6.75534	0.0407249	0.569841
C	7.63958	0.864213	-0.347529
O	7.75836	0.572829	-1.5361
H	6.41935	-1.11939	-1.1186
H	6.06847	0.723555	1.05417
C	7.60897	-0.704015	1.61957
H	8.32109	-1.39692	1.12278
H	8.17767	0.00170166	2.25914
H	6.94211	-1.30615	2.27461
N	8.27803	1.92449	0.18559
C	9.13631	2.76931	-0.611774
H	8.1662	2.14678	1.14848
H	9.56849	3.58647	0.00685985
H	8.56525	3.22932	-1.45057
H	9.97426	2.17859	-1.04768
