44
  This energy is 0.1013 and Call times are: 93027
C	1.52322	1.73121	2.6068
C	1.47565	1.26984	1.20109
O	2.24105	1.72138	0.36044
H	2.3107	2.50886	2.71168
H	1.76463	0.882166	3.28029
H	0.545266	2.16835	2.89939
N	0.557358	0.345302	0.910691
C	0.361804	-0.16957	-0.421685
C	-1.08896	-0.591984	-0.557313
O	-1.83057	-0.62156	0.422924
H	-0.0857094	0.0173659	1.59683
H	0.535717	0.62216	-1.1397
C	1.30147	-1.36442	-0.694836
H	1.11618	-2.18117	0.0349781
H	1.17024	-1.76102	-1.72246
H	2.35724	-1.03425	-0.582201
N	-1.53161	-0.922745	-1.78641
C	-2.8982	-1.33176	-2.01295
H	-0.91761	-0.888685	-2.56802
H	-3.06684	-1.56153	-3.08812
H	-3.60479	-0.524619	-1.71204
H	-3.13993	-2.24185	-1.4176
C	2.01092	2.47529	-2.33226
C	1.63373	1.59041	-1.20716
O	0.585638	1.75318	-0.597707
H	1.22408	3.2482	-2.47138
H	2.10475	1.88543	-3.26822
H	2.97598	2.97993	-2.11529
N	2.49673	0.618813	-0.9012
C	2.28849	-0.293888	0.195234
C	3.64641	-0.741776	0.702229
O	4.67277	-0.460038	0.0866692
H	3.36488	0.524395	-1.38001
H	1.79751	0.228681	1.0067
C	1.44906	-1.51077	-0.251734
H	1.9574	-2.05333	-1.07712
H	1.27006	-2.21418	0.587136
H	0.463046	-1.15881	-0.626236
N	3.68377	-1.44779	1.84947
C	4.93091	-1.91166	2.41128
H	2.84302	-1.66245	2.33541
H	4.7526	-2.47215	3.35536
H	5.60427	-1.05281	2.63544
H	5.45712	-2.58567	1.69718
