44
  This energy is -4.0437 and Call times are: 94077
C	-0.932262	-3.06907	1.35071
C	-0.794385	-1.59748	1.43168
O	-1.32173	-0.960973	2.33344
H	-1.56883	-3.42504	2.18972
H	0.0648273	-3.5516	1.42631
H	-1.40987	-3.35641	0.39028
N	-0.0712021	-1.0155	0.47215
C	0.116627	0.411732	0.392873
C	0.322844	0.78145	-1.06395
O	0.474282	-0.0887929	-1.91921
H	0.317668	-1.54248	-0.278144
H	-0.784772	0.909803	0.72759
C	1.32809	0.856704	1.24116
H	2.25492	0.354022	0.891387
H	1.47482	1.95545	1.19942
H	1.15897	0.568961	2.3018
N	0.324953	2.09086	-1.38249
C	0.508642	2.53735	-2.74377
H	0.196765	2.78016	-0.677142
H	0.478958	3.64779	-2.80082
H	-0.293199	2.13105	-3.40198
H	1.49013	2.19173	-3.14173
C	3.10145	-2.65533	-0.07767
C	4.437	-2.07067	-0.333872
O	5.38889	-2.77598	-0.63857
H	3.15586	-3.75974	-0.192364
H	2.36269	-2.25462	-0.803216
H	2.77125	-2.41716	0.955439
N	4.53795	-0.745076	-0.211369
C	5.78148	-0.0370669	-0.387201
C	5.73645	1.21691	0.46549
O	4.69546	1.56459	1.01971
H	3.76386	-0.188912	0.0772852
H	6.59582	-0.648493	-0.0189306
C	6.00483	0.325366	-1.87179
H	5.17498	0.961372	-2.24715
H	6.96577	0.858739	-2.02222
H	6.02634	-0.606596	-2.47786
N	6.87568	1.92455	0.597457
C	6.92979	3.12845	1.39361
H	7.70897	1.62507	0.144671
H	7.9529	3.56461	1.378
H	6.65718	2.91203	2.45197
H	6.2175	3.89061	1.00259
