44
  This energy is -3.7424 and Call times are: 87876
C	-2.23337	0.264874	-2.65604
C	-0.863903	0.113048	-2.11508
O	0.074683	-0.182145	-2.84194
H	-2.22253	0.0543874	-3.74758
H	-2.5963	1.30151	-2.49354
H	-2.92259	-0.450016	-2.15904
N	-0.718539	0.312984	-0.803108
C	0.544461	0.159392	-0.125022
C	0.264626	-0.243619	1.31054
O	-0.880554	-0.226283	1.75773
H	-1.49914	0.512534	-0.217701
H	1.10057	-0.648361	-0.584269
C	1.35809	1.47134	-0.170339
H	0.792421	2.29793	0.310077
H	2.33873	1.36185	0.33649
H	1.54427	1.75129	-1.2302
N	1.31144	-0.626561	2.06788
C	1.14084	-1.03237	3.44352
H	2.2301	-0.637951	1.68707
H	2.11831	-1.31063	3.89556
H	0.46002	-1.91161	3.51211
H	0.698689	-0.205604	4.04527
C	4.67074	1.16866	3.25003
C	5.23307	0.208167	2.27413
O	6.09359	-0.596968	2.60226
H	5.16538	1.02352	4.23498
H	3.5796	1.00023	3.36755
H	4.84911	2.21004	2.90831
N	4.75178	0.275243	1.03064
C	5.23127	-0.564579	-0.0386317
C	5.05089	0.184443	-1.34554
O	4.41988	1.23894	-1.38515
H	4.08098	0.963264	0.768907
H	6.29254	-0.736613	0.0907369
C	4.4655	-1.90535	-0.0728122
H	3.37797	-1.72988	-0.216075
H	4.83498	-2.56654	-0.883267
H	4.60505	-2.43249	0.8962
N	5.61244	-0.34303	-2.45118
C	5.49812	0.30218	-3.73835
H	6.12272	-1.19503	-2.39843
H	6.02666	-0.285351	-4.52109
H	5.94256	1.32333	-3.70671
H	4.42885	0.400119	-4.03535
