44
  This energy is -4.5141 and Call times are: 87842
C	-2.42106	-0.346833	-2.47605
C	-1.01823	-0.159974	-2.04213
O	-0.0922318	-0.254202	-2.83589
H	-2.44105	-0.585235	-3.56171
H	-3.0027	0.58266	-2.30146
H	-2.88664	-1.18476	-1.91551
N	-0.828246	0.111591	-0.748863
C	0.481739	0.276677	-0.169858
C	0.408882	-0.13221	1.28927
O	-0.6731	-0.365194	1.82476
H	-1.58907	0.144638	-0.10705
H	1.17576	-0.39546	-0.658935
C	0.961764	1.7389	-0.299117
H	0.255626	2.42785	0.211523
H	1.97518	1.87593	0.130695
H	0.999853	2.01897	-1.37451
N	1.56844	-0.237469	1.96779
C	1.59779	-0.625822	3.35865
H	2.4342	-0.048858	1.51618
H	2.64347	-0.65545	3.73669
H	1.14743	-1.63583	3.49403
H	1.02024	0.0958743	3.98052
C	4.60786	-3.23256	1.11847
C	4.86036	-1.79476	1.36371
O	4.69678	-1.30337	2.47195
H	4.25602	-3.70933	2.05908
H	5.5418	-3.73433	0.788732
H	3.82687	-3.35639	0.338858
N	5.26961	-1.07681	0.315164
C	5.51438	0.342111	0.387991
C	5.26062	0.936902	-0.984379
O	5.06928	0.212432	-1.95918
H	5.3588	-1.4824	-0.590043
H	4.80485	0.792414	1.07093
C	6.96182	0.629597	0.843522
H	7.69017	0.176795	0.137457
H	7.15852	1.71884	0.91687
H	7.12744	0.178491	1.84622
N	5.24482	2.28022	-1.09047
C	5.00581	2.93583	-2.35507
H	5.39766	2.84971	-0.289593
H	5.03183	4.04144	-2.23597
H	4.0091	2.65067	-2.76314
H	5.78036	2.64503	-3.10115
