44
  This energy is -5.6075 and Call times are: 86168
C	1.45864	-0.33056	3.14257
C	0.866715	-0.905338	1.91359
O	0.940581	-2.10299	1.67574
H	1.94867	-1.13927	3.72716
H	0.667358	0.135218	3.7668
H	2.21953	0.434199	2.87935
N	0.25785	-0.0479407	1.09108
C	-0.327678	-0.451076	-0.163193
C	-0.274858	0.731767	-1.11169
O	0.0570669	1.84584	-0.711202
H	0.241582	0.930091	1.27831
H	0.270826	-1.24119	-0.599253
C	-1.78522	-0.92199	0.0344466
H	-2.40209	-0.108326	0.472001
H	-2.24264	-1.24815	-0.92206
H	-1.80056	-1.78282	0.738073
N	-0.595346	0.513173	-2.40224
C	-0.56825	1.57729	-3.37852
H	-0.857461	-0.396088	-2.70821
H	-0.862916	1.1981	-4.38182
H	0.453832	2.01403	-3.45522
H	-1.27127	2.39234	-3.09114
C	7.24421	-2.32066	2.54619
C	6.95837	-0.94808	2.07133
O	6.57892	-0.0776392	2.84254
H	7.04034	-2.38172	3.63732
H	8.30988	-2.57414	2.36496
H	6.59573	-3.05112	2.01801
N	7.1354	-0.722287	0.767468
C	6.85717	0.550739	0.150579
C	6.4741	0.301653	-1.29606
O	6.5985	-0.814121	-1.79734
H	7.40534	-1.45153	0.145219
H	6.00261	1.00427	0.637055
C	8.08524	1.48367	0.232589
H	8.95935	1.02344	-0.275516
H	7.87906	2.47211	-0.226762
H	8.35252	1.64558	1.29968
N	5.98784	1.34144	-2.00205
C	5.59187	1.19785	-3.38363
H	5.89069	2.23571	-1.57789
H	5.21833	2.16432	-3.78815
H	4.78161	0.439665	-3.48324
H	6.45355	0.866186	-4.00705
