44
  This energy is -3.402 and Call times are: 86599
C	1.31206	0.685019	-3.14991
C	0.490771	1.04811	-1.97314
O	0.0582246	2.18326	-1.82904
H	1.44915	1.58152	-3.79286
H	0.805318	-0.1068	-3.74065
H	2.30907	0.321251	-2.82321
N	0.256385	0.0747922	-1.08991
C	-0.489665	0.28627	0.125507
C	0.00763939	-0.701829	1.16373
O	0.78186	-1.60516	0.853423
H	0.649495	-0.833578	-1.20034
H	-0.284483	1.28058	0.502184
C	-2.00359	0.100775	-0.117092
H	-2.21581	-0.9226	-0.493531
H	-2.59014	0.274578	0.80826
H	-2.34396	0.828466	-0.885835
N	-0.422587	-0.546485	2.43132
C	0.00156303	-1.43537	3.48781
H	-1.04568	0.192962	2.6638
H	-0.460152	-1.14317	4.45666
H	1.10918	-1.40634	3.60454
H	-0.294241	-2.48515	3.26068
C	5.52	2.66675	2.23312
C	5.61489	1.22283	1.92125
O	6.04894	0.425366	2.74104
H	5.90738	2.84706	3.25941
H	4.46203	3.00003	2.1846
H	6.12599	3.25465	1.51185
N	5.20556	0.849932	0.706431
C	5.27697	-0.513284	0.242647
C	5.43125	-0.492012	-1.26643
O	5.31204	0.556762	-1.89696
H	4.89303	1.51632	0.0355268
H	6.16288	-0.983548	0.650866
C	4.01106	-1.30045	0.646484
H	3.10285	-0.824406	0.219187
H	4.06012	-2.3554	0.307091
H	3.914	-1.29614	1.75414
N	5.71039	-1.65736	-1.88291
C	5.88001	-1.7331	-3.31528
H	5.80717	-2.4948	-1.35526
H	6.10442	-2.77605	-3.63012
H	6.71873	-1.07885	-3.64662
H	4.95476	-1.39998	-3.8388
