44
  This energy is 0.1291 and Call times are: 88001
C	-1.65346	1.68488	2.55733
C	-0.888162	0.527836	2.04089
O	-0.432497	-0.318367	2.79767
H	-1.69948	1.62917	3.66668
H	-2.68764	1.67067	2.15358
H	-1.15594	2.63378	2.26551
N	-0.72607	0.466689	0.717121
C	0.0313386	-0.575782	0.070479
C	0.606157	-0.0141133	-1.21625
O	0.262751	1.0918	-1.62945
H	-1.06779	1.18471	0.117501
H	0.865761	-0.855075	0.70164
C	-0.859073	-1.80274	-0.224456
H	-1.70939	-1.51894	-0.880548
H	-0.28412	-2.6178	-0.709868
H	-1.27519	-2.19221	0.730271
N	1.50739	-0.765591	-1.87889
C	2.1122	-0.310908	-3.10919
H	1.77575	-1.65608	-1.52664
H	2.82613	-1.06902	-3.50008
H	2.66691	0.641373	-2.94568
H	1.33434	-0.128393	-3.88557
C	1.07361	-0.871839	-0.786084
C	2.06439	-0.0927491	-0.00985919
O	1.71999	0.846465	0.694183
H	0.0600568	-0.446584	-0.61959
H	1.07715	-1.93202	-0.456301
H	1.31101	-0.8212	-1.86967
N	3.33941	-0.47134	-0.125605
C	4.42114	0.216186	0.534487
C	5.67458	0.0385362	-0.301516
O	5.69024	-0.735933	-1.25632
H	3.6089	-1.21192	-0.734515
H	4.20314	1.27637	0.567701
C	4.63814	-0.337009	1.96001
H	4.87221	-1.4224	1.92578
H	5.45944	0.193714	2.48377
H	3.70592	-0.203748	2.55124
N	6.75913	0.763776	0.0357942
C	7.99494	0.664909	-0.705273
H	6.72586	1.3882	0.809137
H	8.76727	1.33911	-0.273768
H	7.83764	0.949014	-1.77102
H	8.38599	-0.377966	-0.680104
