44
  This energy is 0.136 and Call times are: 84480
C	3.101	1.33861	0.839414
C	1.91529	1.25002	-0.0422828
O	1.71991	2.07403	-0.925037
H	3.69826	2.23452	0.56282
H	3.7341	0.434183	0.721394
H	2.78355	1.4316	1.89945
N	1.08265	0.231146	0.183512
C	-0.134942	0.037361	-0.563799
C	-1.12818	-0.682677	0.328718
O	-0.781133	-1.1413	1.41543
H	1.2337	-0.407964	0.932238
H	-0.561423	1.00223	-0.808295
C	0.129866	-0.778795	-1.84793
H	0.557589	-1.77286	-1.59707
H	-0.797597	-0.922937	-2.43917
H	0.865244	-0.237022	-2.48201
N	-2.39796	-0.791468	-0.109287
C	-3.41362	-1.45519	0.67435
H	-2.66063	-0.410361	-0.989533
H	-4.3914	-1.44053	0.144306
H	-3.54148	-0.951017	1.65961
H	-3.13299	-2.5166	0.863531
C	0.230717	0.253852	0.111326
C	1.56475	0.779531	-0.256351
O	1.68211	1.74706	-0.995622
H	-0.55401	0.856925	-0.394994
H	0.0824866	0.320605	1.20965
H	0.134344	-0.804449	-0.210831
N	2.61728	0.140294	0.259347
C	3.97847	0.508156	-0.0412648
C	4.84096	-0.734473	0.0751622
O	4.38329	-1.77768	0.537728
H	2.50656	-0.670772	0.826595
H	4.03843	0.84739	-1.06788
C	4.47869	1.60669	0.922188
H	4.4273	1.25533	1.97478
H	5.52107	1.90844	0.692149
H	3.82828	2.50336	0.825796
N	6.11613	-0.652887	-0.352974
C	7.00971	-1.78571	-0.286623
H	6.46714	0.198714	-0.728003
H	8.01298	-1.51915	-0.686154
H	6.60962	-2.63707	-0.883623
H	7.13128	-2.1293	0.766138
