44
  This energy is -2.7247 and Call times are: 87593
C	2.8431	-1.14658	-1.64768
C	1.38038	-1.14426	-1.42052
O	0.618869	-1.70906	-2.19351
H	3.06824	-1.69915	-2.58569
H	3.36083	-1.64714	-0.802616
H	3.21684	-0.10549	-1.74537
N	0.949178	-0.494963	-0.336618
C	-0.44852	-0.369141	-0.00621078
C	-0.636159	0.918684	0.773439
O	0.33381	1.56664	1.16207
H	1.57779	-0.00535867	0.260874
H	-1.02475	-0.28063	-0.918765
C	-0.930433	-1.57944	0.823349
H	-0.346659	-1.66447	1.76463
H	-2.00858	-1.5011	1.07229
H	-0.77631	-2.51129	0.236608
N	-1.89808	1.32577	1.014
C	-2.17406	2.54159	1.74325
H	-2.67	0.790159	0.687931
H	-3.27049	2.70375	1.83685
H	-1.73295	3.42145	1.22121
H	-1.73788	2.49334	2.76725
C	4.59515	-2.13721	2.51484
C	4.74301	-0.788889	1.92211
O	4.13458	0.171374	2.37391
H	3.87169	-2.09061	3.35762
H	5.57301	-2.49527	2.89999
H	4.21447	-2.85027	1.75346
N	5.56786	-0.687125	0.877288
C	5.78119	0.55002	0.168404
C	6.13987	0.216601	-1.26748
O	6.36663	-0.943165	-1.60693
H	6.02449	-1.48554	0.495353
H	4.85682	1.11369	0.14742
C	6.90532	1.37768	0.829124
H	7.85647	0.803904	0.841404
H	7.06971	2.33903	0.300622
H	6.62506	1.60327	1.88122
N	6.19139	1.23268	-2.15118
C	6.51889	1.01048	-3.54026
H	6.00074	2.16384	-1.85847
H	6.50951	1.96889	-4.1047
H	5.7833	0.319017	-4.0115
H	7.53135	0.555936	-3.63754
