44
  This energy is -3.9731 and Call times are: 94049
C	0.424006	-3.27749	-1.09132
C	-0.301669	-1.98732	-1.0919
O	-1.16725	-1.7483	-1.92259
H	0.0599365	-3.90404	-1.93439
H	0.243653	-3.81759	-0.138166
H	1.51355	-3.10378	-1.21707
N	0.0433967	-1.11193	-0.144794
C	-0.543186	0.201206	-0.0440394
C	0.478181	1.12829	0.587538
O	1.52097	0.684924	1.06476
H	0.778355	-1.30487	0.499007
H	-0.749223	0.577658	-1.03825
C	-1.83611	0.164606	0.799905
H	-1.62341	-0.211573	1.82327
H	-2.3048	1.16733	0.873353
H	-2.56595	-0.525825	0.323465
N	0.203492	2.44756	0.597173
C	1.11867	3.40603	1.1716
H	-0.643636	2.78769	0.202516
H	0.71422	4.43835	1.08228
H	2.10339	3.36924	0.651751
H	1.28963	3.18837	2.25073
C	4.89328	0.46036	-3.44811
C	4.24501	0.149658	-2.15413
O	3.02705	0.097965	-2.05261
H	4.11087	0.636254	-4.21801
H	5.53037	-0.389761	-3.77084
H	5.51678	1.3744	-3.35402
N	5.05984	-0.0653514	-1.11865
C	4.57641	-0.336089	0.212345
C	5.61246	0.162063	1.2023
O	6.71812	0.540294	0.819963
H	6.04803	0.0205631	-1.20777
H	3.6684	0.22833	0.384294
C	4.32091	-1.84636	0.409924
H	5.25459	-2.42492	0.243954
H	3.93519	-2.06609	1.42652
H	3.56572	-2.19069	-0.329988
N	5.27276	0.181548	2.50623
C	6.19168	0.644403	3.51991
H	4.37194	-0.124616	2.79581
H	5.72742	0.583629	4.52887
H	6.48355	1.70301	3.33162
H	7.11835	0.0260034	3.52229
