44
  This energy is -1.7943 and Call times are: 88634
C	1.87507	-0.69979	-2.8473
C	0.707359	-0.0884648	-2.17359
O	-0.0251275	0.694349	-2.76272
H	1.94139	-0.315253	-3.88826
H	1.76407	-1.80408	-2.87851
H	2.80915	-0.437493	-2.30712
N	0.506923	-0.437276	-0.900588
C	-0.562009	0.107045	-0.100801
C	-0.119509	0.0966605	1.35028
O	0.914739	-0.475318	1.68923
H	1.13545	-1.04399	-0.422336
H	-0.726915	1.14014	-0.38036
C	-1.85727	-0.715271	-0.277807
H	-1.69148	-1.77288	0.0188595
H	-2.69163	-0.297882	0.322318
H	-2.15801	-0.700442	-1.34817
N	-0.894221	0.741318	2.24486
C	-0.550095	0.789556	3.6468
H	-1.72523	1.2018	1.95084
H	-1.31041	1.36575	4.21876
H	0.441067	1.27738	3.79138
H	-0.49463	-0.238064	4.07348
C	8.81545	-1.8431	1.62399
C	7.75	-1.70463	0.605745
O	7.59191	-2.55016	-0.26403
H	9.38933	-2.77537	1.43065
H	8.36953	-1.89959	2.63923
H	9.50871	-0.977175	1.57263
N	6.98443	-0.614316	0.692352
C	5.93543	-0.319715	-0.251768
C	5.77139	1.18686	-0.321663
O	6.35404	1.92138	0.47377
H	7.15157	0.0852627	1.3812
H	6.23535	-0.657533	-1.23592
C	4.6094	-0.98978	0.17002
H	4.29581	-0.63557	1.17513
H	3.79721	-0.781827	-0.556358
H	4.75501	-2.09087	0.222345
N	4.97484	1.68495	-1.2878
C	4.7631	3.10611	-1.4349
H	4.51511	1.0749	-1.92465
H	4.07765	3.31563	-2.28548
H	5.72809	3.62936	-1.62535
H	4.31485	3.53459	-0.509359
