44
  This energy is 0.6665 and Call times are: 91559
C	1.49482	-0.904257	-3.01007
C	1.0725	0.109476	-2.01753
O	1.45514	1.2688	-2.09478
H	2.1783	-0.432343	-3.74901
H	0.609727	-1.30748	-3.54559
H	2.0307	-1.73499	-2.50431
N	0.261583	-0.313872	-1.04513
C	-0.19917	0.545455	0.0168598
C	-0.455776	-0.312232	1.24164
O	-0.424827	-1.53921	1.16899
H	-0.00835216	-1.26974	-0.972217
H	0.5841	1.24785	0.273287
C	-1.48415	1.29498	-0.398184
H	-2.29129	0.57488	-0.651214
H	-1.84119	1.97045	0.406053
H	-1.2751	1.9098	-1.30076
N	-0.708579	0.318913	2.40516
C	-0.959163	-0.414445	3.624
H	-0.725349	1.3125	2.44494
H	-1.14525	0.2822	4.47092
H	-0.0857642	-1.05577	3.88314
H	-1.84986	-1.07382	3.50992
C	5.97701	-2.78059	-2.08075
C	6.42913	-1.98129	-0.919779
O	7.21773	-2.4393	-0.10447
H	6.44777	-3.78685	-2.03957
H	6.27504	-2.28287	-3.02743
H	4.87316	-2.89904	-2.05724
N	5.9285	-0.747888	-0.817335
C	6.24114	0.133095	0.280244
C	5.06334	1.06651	0.487802
O	4.13729	1.10126	-0.320233
H	5.25605	-0.40387	-1.46642
H	6.35387	-0.450243	1.18558
C	7.52657	0.939146	-0.00821852
H	7.40765	1.54588	-0.931138
H	7.7856	1.61116	0.835477
H	8.37345	0.235817	-0.164628
N	5.06798	1.84385	1.58859
C	3.98713	2.75897	1.87228
H	5.82421	1.79864	2.23291
H	4.17506	3.30736	2.82159
H	3.02277	2.20965	1.96989
H	3.87807	3.50484	1.05195
