44
  This energy is -1.4268 and Call times are: 88849
C	-1.72593	1.31075	-2.72319
C	-0.734263	1.4267	-1.63036
O	0.0367875	2.37466	-1.57323
H	-1.61232	2.17328	-3.41529
H	-2.75559	1.31646	-2.30784
H	-1.56174	0.370539	-3.29077
N	-0.731566	0.445626	-0.724892
C	0.203279	0.397565	0.371609
C	0.424729	-1.05712	0.740935
O	-0.270119	-1.94447	0.249496
H	-1.33773	-0.340241	-0.807604
H	1.15606	0.796465	0.0464714
C	-0.329411	1.18946	1.58585
H	-1.30176	0.773977	1.92638
H	0.387707	1.17159	2.43199
H	-0.491656	2.24906	1.29043
N	1.41099	-1.33702	1.61557
C	1.69869	-2.69286	2.0219
H	1.96523	-0.605849	1.99934
H	2.54358	-2.71581	2.74498
H	1.97427	-3.31681	1.14098
H	0.808775	-3.15491	2.50739
C	5.02415	3.28488	-1.08677
C	4.46729	1.9765	-0.67542
O	3.27193	1.83831	-0.455329
H	4.20562	4.03602	-1.12737
H	5.48813	3.20425	-2.09224
H	5.78672	3.62361	-0.354089
N	5.33799	0.971193	-0.558727
C	4.953	-0.349029	-0.125886
C	6.14612	-0.989089	0.558484
O	7.25334	-0.455674	0.52314
H	6.31393	1.10908	-0.701545
H	4.16389	-0.267363	0.611169
C	4.48965	-1.20865	-1.32238
H	5.30243	-1.30149	-2.07392
H	4.17741	-2.22315	-1.00019
H	3.62105	-0.717304	-1.81273
N	5.94429	-2.15197	1.20885
C	7.01917	-2.83141	1.89381
H	5.04032	-2.56608	1.22979
H	6.65334	-3.7693	2.36684
H	7.4499	-2.18213	2.69018
H	7.83562	-3.09267	1.18226
