44
  This energy is -2.1371 and Call times are: 93753
C	-2.28079	2.37984	1.11671
C	-1.54475	1.68677	0.0354951
O	-1.84909	1.84369	-1.13888
H	-3.09527	2.99234	0.672469
H	-1.59506	3.04758	1.67944
H	-2.72735	1.63813	1.81208
N	-0.54385	0.88922	0.415637
C	0.235888	0.115527	-0.518155
C	0.736053	-1.12525	0.197291
O	0.59838	-1.24996	1.41269
H	-0.334435	0.739871	1.37777
H	-0.401818	-0.214522	-1.32873
C	1.42171	0.941025	-1.06371
H	2.08199	1.27095	-0.233523
H	2.0218	0.360853	-1.79433
H	1.03264	1.8479	-1.57611
N	1.32497	-2.08171	-0.547289
C	1.82684	-3.29935	0.045718
H	1.42356	-1.9645	-1.52995
H	2.27474	-3.95894	-0.729873
H	1.00535	-3.85852	0.549466
H	2.60782	-3.07283	0.807225
C	4.79324	0.614075	-3.32939
C	5.75634	0.586024	-2.20564
O	6.95591	0.731206	-2.39629
H	5.3456	0.760866	-4.28291
H	4.07542	1.45077	-3.1974
H	4.23678	-0.345515	-3.38049
N	5.24273	0.392884	-0.988553
C	6.0577	0.298635	0.196984
C	5.33379	-0.579744	1.19997
O	4.17444	-0.938085	1.00198
H	4.26858	0.235445	-0.854034
H	6.99036	-0.193624	-0.0488741
C	6.32479	1.69711	0.795464
H	5.36868	2.1983	1.05762
H	6.96286	1.63911	1.70101
H	6.84795	2.32509	0.0416272
N	6.00916	-0.955867	2.30379
C	5.40371	-1.79575	3.31087
H	6.94793	-0.659194	2.44439
H	6.11878	-1.99393	4.13951
H	5.09456	-2.77272	2.87357
H	4.49842	-1.30681	3.7381
