44
  This energy is -4.2003 and Call times are: 94716
C	1.92778	-2.88832	-0.232206
C	1.2339	-1.73206	-0.842706
O	1.40996	-1.43576	-2.01643
H	2.5874	-3.36316	-0.990703
H	1.18718	-3.63715	0.119236
H	2.54913	-2.55286	0.624814
N	0.417339	-1.04073	-0.0441579
C	-0.293712	0.134204	-0.482904
C	-0.515851	1.02982	0.721291
O	-0.259914	0.633493	1.85669
H	0.315831	-1.26955	0.919796
H	0.322153	0.683399	-1.18414
C	-1.64302	-0.247182	-1.13033
H	-2.27943	-0.801444	-0.407966
H	-2.19382	0.648072	-1.48481
H	-1.45672	-0.908914	-2.00426
N	-0.992992	2.27026	0.498443
C	-1.23076	3.19473	1.58242
H	-1.19021	2.57429	-0.427701
H	-1.62231	4.16149	1.19604
H	-0.287862	3.39646	2.14056
H	-1.9738	2.77679	2.29961
C	7.06787	-2.83833	0.753469
C	6.82476	-1.60984	-0.0357511
O	7.67817	-1.16234	-0.789308
H	8.09433	-3.21124	0.545661
H	6.33609	-3.62469	0.472621
H	6.97759	-2.6202	1.83852
N	5.63439	-1.0271	0.124942
C	5.26797	0.197363	-0.542128
C	4.26257	0.927567	0.32825
O	3.77444	0.384703	1.31756
H	4.96552	-1.38034	0.772782
H	6.14099	0.832174	-0.628487
C	4.66855	-0.0917025	-1.93582
H	3.76674	-0.734263	-1.84694
H	4.39516	0.84397	-2.46525
H	5.41849	-0.633355	-2.55271
N	3.93459	2.18791	-0.0181135
C	2.99079	2.96256	0.753466
H	4.34323	2.61161	-0.819718
H	2.85445	3.97286	0.308552
H	3.34812	3.08645	1.80144
H	1.99897	2.45613	0.784499
