44
  This energy is -1.4814 and Call times are: 94351
C	0.542425	3.40495	-0.47408
C	0.152113	2.25244	0.368841
O	0.0108021	2.37171	1.57806
H	0.682192	4.30032	0.169867
H	-0.251144	3.61939	-1.22041
H	1.49591	3.18854	-1.0005
N	-0.0313491	1.09055	-0.262604
C	-0.371004	-0.128483	0.428161
C	0.173641	-1.29467	-0.374905
O	0.639923	-1.12185	-1.49937
H	0.127329	0.999849	-1.24162
H	0.122307	-0.142226	1.39205
C	-1.90037	-0.257102	0.600624
H	-2.4061	-0.253664	-0.388446
H	-2.17388	-1.18505	1.14342
H	-2.27816	0.610732	1.18413
N	0.134351	-2.51669	0.191806
C	0.634807	-3.68475	-0.494757
H	-0.242971	-2.63594	1.10421
H	0.51437	-4.59319	0.135678
H	1.71617	-3.56583	-0.735155
H	0.0843996	-3.84513	-1.44999
C	5.73534	2.30929	-2.53719
C	6.04609	1.04986	-1.82415
O	6.8165	0.226968	-2.29927
H	6.28348	2.32875	-3.50415
H	6.05078	3.18203	-1.92763
H	4.64564	2.3751	-2.74044
N	5.44054	0.868722	-0.648188
C	5.60988	-0.325478	0.1416
C	4.34874	-0.535146	0.958381
O	3.47588	0.329659	1.00241
H	4.78451	1.52893	-0.293765
H	5.71262	-1.17827	-0.517804
C	6.84052	-0.20503	1.06694
H	6.73082	0.663484	1.75082
H	6.98972	-1.12384	1.67031
H	7.75041	-0.0441579	0.448431
N	4.22003	-1.70108	1.62173
C	3.05201	-1.99152	2.4202
H	4.93517	-2.3903	1.57061
H	3.13396	-2.99867	2.88512
H	2.13171	-1.96905	1.79264
H	2.93421	-1.23854	3.23279
