44
  This energy is -1.7728 and Call times are: 86382
C	0.569329	1.98421	-2.80204
C	0.696088	1.70779	-1.35337
O	1.44047	2.37157	-0.64506
H	1.24298	2.82512	-3.07582
H	-0.475983	2.26651	-3.04776
H	0.857521	1.08702	-3.38948
N	-0.0398454	0.702069	-0.8745
C	0.00905356	0.286637	0.505204
C	-0.325217	-1.19191	0.566093
O	-0.736166	-1.78617	-0.428738
H	-0.610036	0.144671	-1.47121
H	1.01877	0.404697	0.878249
C	-0.983772	1.10198	1.36238
H	-2.02112	0.972827	0.986529
H	-0.945613	0.800959	2.42936
H	-0.725034	2.18137	1.29659
N	-0.147244	-1.82529	1.74218
C	-0.433609	-3.23286	1.8936
H	0.190054	-1.3284	2.5349
H	-0.223305	-3.56733	2.93338
H	0.191483	-3.83795	1.19762
H	-1.50406	-3.44275	1.6673
C	7.3831	1.01781	-2.32328
C	6.02319	0.551946	-1.97006
O	5.11348	0.576392	-2.78752
H	7.38731	1.37412	-3.37632
H	8.11095	0.185438	-2.22262
H	7.68524	1.85509	-1.6594
N	5.85236	0.111823	-0.721261
C	4.5768	-0.333107	-0.217742
C	4.54457	-0.0807845	1.27787
O	5.55796	0.269885	1.87937
H	6.59244	0.136349	-0.0552732
H	3.78961	0.262883	-0.662445
C	4.35716	-1.83188	-0.518869
H	5.15866	-2.44468	-0.0539892
H	3.37239	-2.18321	-0.148309
H	4.39263	-1.99437	-1.61827
N	3.36861	-0.246587	1.91476
C	3.24082	-0.0240077	3.33613
H	2.55865	-0.526786	1.41026
H	2.19696	-0.211777	3.67131
H	3.50845	1.02609	3.59489
H	3.91867	-0.70267	3.90277
