44
  This energy is -4.253 and Call times are: 89424
C	-0.697592	-2.94356	-1.72091
C	-0.428239	-2.19707	-0.471371
O	-0.596809	-2.71472	0.624086
H	-1.06574	-3.96169	-1.4684
H	0.232883	-3.03608	-2.31957
H	-1.47194	-2.41981	-2.32022
N	0.00171123	-0.940924	-0.611473
C	0.26489	-0.0758265	0.511427
C	0.0336662	1.35682	0.0691549
O	-0.15719	1.62738	-1.11494
H	0.0949245	-0.520113	-1.5093
H	-0.44563	-0.288501	1.30045
C	1.71122	-0.258353	1.02139
H	2.44075	-0.0300842	0.215348
H	1.92187	0.392364	1.89473
H	1.86015	-1.31554	1.33206
N	0.0371846	2.31275	1.01901
C	-0.179608	3.70305	0.693045
H	0.189277	2.07378	1.97234
H	-0.139874	4.33259	1.60919
H	-1.17574	3.84351	0.214224
H	0.598748	4.06643	-0.0163608
C	3.97115	2.72829	-1.84252
C	4.22974	1.27935	-1.68481
O	3.7869	0.466588	-2.48464
H	3.33747	2.89262	-2.74102
H	4.9282	3.27589	-1.97269
H	3.43896	3.12132	-0.950682
N	4.96371	0.918934	-0.629461
C	5.26293	-0.456931	-0.319595
C	5.44761	-0.574286	1.18163
O	5.49879	0.429205	1.89022
H	5.28267	1.58836	0.035367
H	4.41669	-1.07616	-0.58987
C	6.53495	-0.925112	-1.05987
H	7.40564	-0.296811	-0.774929
H	6.7681	-1.98717	-0.84032
H	6.38009	-0.823017	-2.1562
N	5.54405	-1.81241	1.70486
C	5.71578	-2.02222	3.12354
H	5.49628	-2.61234	1.11587
H	5.7736	-3.10837	3.35629
H	4.86151	-1.58716	3.69119
H	6.65188	-1.53625	3.48227
