44
  This energy is 0.1011 and Call times are: 85552
C	2.691	1.84325	-1.21394
C	1.47711	1.02089	-1.41725
O	0.956235	0.922953	-2.51975
H	2.98015	2.31584	-2.17775
H	3.52929	1.20716	-0.859822
H	2.49205	2.64127	-0.467832
N	0.991163	0.40318	-0.338054
C	-0.20777	-0.396888	-0.369845
C	-0.847761	-0.344757	1.00465
O	-0.257949	0.165742	1.95504
H	1.40252	0.525473	0.560668
H	-0.90991	0.0393723	-1.06935
C	0.11271	-1.85566	-0.762944
H	0.824848	-2.30708	-0.039678
H	-0.804178	-2.47865	-0.804437
H	0.587427	-1.86899	-1.76834
N	-2.08211	-0.868317	1.13992
C	-2.77228	-0.858983	2.40868
H	-2.54493	-1.27335	0.35837
H	-3.7734	-1.33465	2.31529
H	-2.91275	0.184922	2.77173
H	-2.18939	-1.4163	3.1773
C	9.92719	-2.19779	0.339329
C	9.22723	-0.935825	0.668956
O	9.59777	-0.230209	1.59697
H	10.7614	-2.35349	1.05747
H	10.3429	-2.14751	-0.688976
H	9.22525	-3.05511	0.412549
N	8.17987	-0.620671	-0.0966274
C	7.37336	0.553026	0.128137
C	5.97033	0.265778	-0.37245
O	5.72692	-0.75503	-1.01308
H	7.86538	-1.22567	-0.822527
H	7.30406	0.740387	1.19243
C	7.96772	1.77854	-0.599931
H	8.02924	1.59084	-1.6931
H	7.36327	2.69175	-0.423259
H	8.99721	1.96531	-0.223629
N	5.0071	1.1624	-0.0821969
C	3.64159	0.970692	-0.512106
H	5.22262	1.98039	0.440804
H	3.00108	1.81556	-0.175676
H	3.22609	0.0266043	-0.0909908
H	3.58439	0.907781	-1.62292
