44
  This energy is -3.7614 and Call times are: 93547
C	-0.864777	2.02442	-2.69566
C	-0.336714	0.762429	-2.13026
O	-0.154203	-0.219884	-2.83606
H	-1.05591	1.88839	-3.78233
H	-0.126753	2.84279	-2.56026
H	-1.81707	2.29915	-2.19492
N	-0.0777253	0.761495	-0.820563
C	0.399265	-0.404634	-0.119718
C	-0.0733227	-0.317863	1.31927
O	-0.601625	0.706257	1.74798
H	-0.270064	1.55603	-0.251714
H	-0.048475	-1.2901	-0.553444
C	1.94005	-0.492258	-0.179278
H	2.39998	0.411108	0.275071
H	2.31877	-1.39348	0.345027
H	2.26375	-0.546813	-1.24163
N	0.0996645	-1.40207	2.10067
C	-0.323721	-1.41394	3.48154
H	0.52544	-2.22293	1.73464
H	-0.0952548	-2.39442	3.9545
H	-1.42081	-1.23534	3.55753
H	0.196776	-0.616052	4.05911
C	4.80782	3.1594	1.22614
C	5.38883	2.2693	0.195946
O	5.71509	2.69986	-0.901588
H	4.72523	4.18977	0.817044
H	5.45927	3.18074	2.12498
H	3.79537	2.80403	1.51202
N	5.53071	0.985221	0.532705
C	6.04101	-0.00912749	-0.378021
C	5.43799	-1.34932	-0.00140823
O	4.78937	-1.47913	1.035
H	5.22262	0.641827	1.41532
H	5.7096	0.22286	-1.3825
C	7.58293	-0.0730036	-0.317663
H	7.9231	-0.321349	0.710273
H	7.98884	-0.825359	-1.02457
H	8.0023	0.920363	-0.589125
N	5.63254	-2.3818	-0.845287
C	5.09182	-3.69309	-0.572669
H	6.15672	-2.25623	-1.68108
H	5.35981	-4.40542	-1.38384
H	3.98114	-3.65167	-0.495418
H	5.49018	-4.09039	0.388893
