44
  This energy is -1.3037 and Call times are: 85407
C	1.4626	-2.63166	1.74582
C	0.628223	-2.10343	0.643124
O	0.269377	-2.82219	-0.27938
H	1.68236	-3.70517	1.55832
H	0.923559	-2.5386	2.71201
H	2.42075	-2.07319	1.80205
N	0.297991	-0.811858	0.715071
C	-0.473019	-0.145027	-0.304458
C	-0.0799952	1.32025	-0.312143
O	0.641012	1.78353	0.569463
H	0.631822	-0.229811	1.45104
H	-0.213542	-0.553679	-1.27312
C	-1.98689	-0.298204	-0.0399356
H	-2.25537	0.130353	0.949153
H	-2.59152	0.199235	-0.825749
H	-2.25039	-1.3784	-0.0307373
N	-0.54171	2.08619	-1.3202
C	-0.215491	3.49014	-1.41336
H	-1.12054	1.69235	-2.02654
H	-0.689064	3.94519	-2.31107
H	0.886886	3.63311	-1.48819
H	-0.574219	4.03768	-0.511887
C	7.10262	-0.376187	-3.44193
C	7.08392	-0.922662	-2.06637
O	7.07433	-2.12915	-1.86464
H	7.08775	-1.21547	-4.17079
H	8.02308	0.22344	-3.60303
H	6.21074	0.263157	-3.61185
N	7.0759	-0.0303308	-1.07336
C	7.01464	-0.409089	0.316367
C	6.33058	0.708215	1.0814
O	6.08484	1.78407	0.539306
H	7.04251	0.948521	-1.25389
H	6.39897	-1.29403	0.418626
C	8.42905	-0.665145	0.881267
H	9.05783	0.2457	0.786197
H	8.39435	-0.971012	1.94699
H	8.91368	-1.4808	0.301465
N	5.99778	0.473851	2.36605
C	5.33903	1.47589	3.17112
H	6.20116	-0.404421	2.78599
H	5.14926	1.09293	4.19804
H	4.36257	1.7638	2.71845
H	5.96711	2.39272	3.24909
