44
  This energy is 0.1024 and Call times are: 86447
C	2.82211	0.836774	-1.85693
C	1.35891	0.661834	-1.71698
O	0.587523	1.0732	-2.57263
H	3.03808	1.38316	-2.8007
H	3.32427	-0.152858	-1.89164
H	3.2208	1.4236	-1.00266
N	0.938614	0.0383193	-0.61382
C	-0.4571	-0.167594	-0.316932
C	-0.617505	-0.218062	1.19081
O	0.365874	-0.256479	1.92783
H	1.57611	-0.25442	0.0931261
H	-1.02721	0.681106	-0.673744
C	-0.971024	-1.47425	-0.960178
H	-0.393413	-2.34645	-0.586461
H	-2.04806	-1.63703	-0.750385
H	-0.836517	-1.41828	-2.0625
N	-1.87044	-0.210563	1.68691
C	-2.12065	-0.250762	3.10887
H	-2.65344	-0.175047	1.07477
H	-3.21333	-0.236783	3.31645
H	-1.65664	0.627024	3.6143
H	-1.69007	-1.17502	3.55775
C	6.31535	2.11848	1.02165
C	5.72172	1.15795	0.0645004
O	6.21386	0.980124	-1.04121
H	7.19999	2.60328	0.554494
H	6.6397	1.59001	1.94267
H	5.57441	2.90194	1.28676
N	4.6301	0.508467	0.475513
C	3.91605	-0.425006	-0.359541
C	2.45967	-0.421522	0.0653127
O	2.10142	0.171167	1.08123
H	4.21757	0.694061	1.36277
H	3.95308	-0.0857143	-1.38722
C	4.51277	-1.84412	-0.235912
H	4.46541	-2.19687	0.816404
H	3.9803	-2.56937	-0.884756
H	5.58084	-1.82128	-0.54422
N	1.57963	-1.08136	-0.713255
C	0.172392	-1.12813	-0.391307
H	1.88792	-1.55153	-1.5336
H	-0.385613	-1.71775	-1.15171
H	-0.257655	-0.100837	-0.359652
H	0.0126133	-1.60013	0.605105
