44
  This energy is 0.1159 and Call times are: 86789
C	-3.19487	-0.669598	1.2071
C	-1.76825	-1.02242	1.02986
O	-1.264	-1.94973	1.64811
H	-3.65047	-1.34901	1.95991
H	-3.73911	-0.781702	0.245861
H	-3.28855	0.377496	1.56475
N	-1.07486	-0.275338	0.167622
C	0.332292	-0.469991	-0.0785169
C	0.930035	0.863451	-0.486181
O	0.209282	1.83226	-0.717762
H	-1.48902	0.501882	-0.297431
H	0.817191	-0.773224	0.841023
C	0.558301	-1.52515	-1.18342
H	0.0699577	-1.20952	-2.12996
H	1.63822	-1.69411	-1.3725
H	0.10592	-2.49038	-0.867161
N	2.27214	0.94591	-0.575489
C	2.9306	2.17538	-0.951012
H	2.83879	0.152272	-0.380247
H	4.03463	2.041	-0.967707
H	2.68732	2.98779	-0.228464
H	2.60183	2.50397	-1.96348
C	3.70663	-2.13197	-2.72068
C	3.75252	-0.789509	-2.09871
O	4.27546	0.156177	-2.67197
H	4.21538	-2.09668	-3.7085
H	2.65302	-2.44867	-2.87017
H	4.22643	-2.87085	-2.07496
N	3.19796	-0.676392	-0.88956
C	3.20298	0.555321	-0.140286
C	3.17576	0.210488	1.33685
O	2.98994	-0.94613	1.71023
H	2.81248	-1.46453	-0.418288
H	4.12776	1.08554	-0.330752
C	1.98853	1.43327	-0.513841
H	1.03937	0.893752	-0.308752
H	1.98859	2.39073	0.0463385
H	2.02472	1.66662	-1.60039
N	3.37025	1.21263	2.21656
C	3.36669	0.978612	3.64183
H	3.52309	2.14129	1.89516
H	3.54386	1.92639	4.19643
H	4.16469	0.253701	3.92285
H	2.388	0.558547	3.96874
