44
  This energy is -3.8575 and Call times are: 94772
C	-0.148699	-2.64271	-2.25979
C	0.410315	-1.98723	-1.05605
O	1.13744	-2.59638	-0.283631
H	0.187444	-3.70192	-2.29077
H	0.205962	-2.12617	-3.17639
H	-1.25843	-2.61865	-2.22812
N	0.0749391	-0.708941	-0.866618
C	0.505916	0.0495938	0.281182
C	-0.53927	1.11173	0.565801
O	-1.45767	1.3194	-0.22485
H	-0.550868	-0.238617	-1.48227
H	0.547145	-0.602061	1.14505
C	1.88352	0.699891	0.0271194
H	1.83911	1.37666	-0.852683
H	2.23269	1.27541	0.908811
H	2.63083	-0.0951794	-0.186776
N	-0.427134	1.80736	1.71452
C	-1.37813	2.83382	2.07252
H	0.320555	1.62214	2.34359
H	-1.11491	3.28923	3.05259
H	-2.40514	2.40862	2.14817
H	-1.39408	3.64017	1.30396
C	9.07943	1.97291	1.52258
C	8.51653	0.656042	1.1482
O	9.16676	-0.371448	1.28191
H	10.1185	1.83619	1.89335
H	8.46898	2.4355	2.32639
H	9.09861	2.6459	0.639524
N	7.27383	0.658871	0.660274
C	6.60792	-0.538954	0.212679
C	5.61474	-0.15262	-0.867093
O	5.36932	1.02872	-1.10353
H	6.77236	1.50767	0.519098
H	7.33367	-1.20344	-0.239403
C	5.88766	-1.24059	1.38492
H	5.13559	-0.562944	1.84234
H	5.3826	-2.17177	1.05576
H	6.6323	-1.50705	2.16649
N	5.02309	-1.14738	-1.55732
C	4.06869	-0.875539	-2.60679
H	5.23762	-2.09703	-1.35431
H	3.69524	-1.82311	-3.05386
H	4.53597	-0.267125	-3.41472
H	3.19676	-0.308306	-2.20787
