44
  This energy is 0.1261 and Call times are: 94002
C	-3.00399	-0.0865077	-1.75534
C	-1.525	-0.114356	-1.70117
O	-0.861173	-0.415859	-2.68344
H	-3.34003	-0.387048	-2.77153
H	-3.37554	0.937848	-1.54228
H	-3.42754	-0.795049	-1.0126
N	-0.967964	0.203082	-0.530135
C	0.456814	0.178961	-0.311076
C	0.704837	-0.117181	1.15601
O	-0.223469	-0.127337	1.96215
H	-1.52266	0.40651	0.271609
H	0.892327	-0.63167	-0.881896
C	1.09883	1.52651	-0.707532
H	0.659845	2.35712	-0.11473
H	2.19774	1.51584	-0.5565
H	0.897974	1.72649	-1.78271
N	1.97166	-0.375077	1.53637
C	2.30258	-0.672843	2.91042
H	2.70879	-0.366283	0.868806
H	3.39406	-0.856188	3.02121
H	1.75771	-1.58042	3.25784
H	2.02001	0.175151	3.5754
C	6.3065	-0.520387	-1.48041
C	5.44878	-0.298159	-0.294625
O	5.88683	-0.43898	0.838819
H	7.32112	-0.829139	-1.14711
H	6.39177	0.415398	-2.07183
H	5.87804	-1.32247	-2.11771
N	4.18476	0.0581251	-0.53488
C	3.21942	0.267586	0.515262
C	1.84232	-0.0457173	-0.0388042
O	1.67816	-0.249075	-1.24022
H	3.8318	0.128873	-1.46346
H	3.40992	-0.431285	1.32019
C	3.27621	1.72082	1.035
H	3.07043	2.43781	0.21182
H	2.54707	1.89097	1.85349
H	4.29491	1.93039	1.42826
N	0.815478	-0.100345	0.83219
C	-0.529546	-0.397056	0.397396
H	0.968764	0.0630561	1.80115
H	-1.23104	-0.396407	1.26061
H	-0.573214	-1.39849	-0.0889255
H	-0.880298	0.360543	-0.340275
