44
  This energy is 0.1106 and Call times are: 87935
C	1.26173	-3.09519	0.969808
C	1.40343	-1.78057	0.304359
O	2.49642	-1.37093	-0.0616767
H	2.26368	-3.56644	1.0692
H	0.609598	-3.76118	0.366541
H	0.823137	-2.96653	1.98183
N	0.281084	-1.07824	0.132743
C	0.265204	0.235963	-0.45985
C	-0.915192	0.998389	0.111925
O	-1.75469	0.430091	0.807616
H	-0.595363	-1.40694	0.47284
H	1.16312	0.768463	-0.17207
C	0.158191	0.146336	-1.99795
H	-0.768151	-0.390648	-2.29388
H	0.158988	1.15158	-2.467
H	1.02783	-0.422304	-2.39383
N	-1.00205	2.31467	-0.163532
C	-2.08737	3.12268	0.341815
H	-0.310849	2.75761	-0.724888
H	-1.98122	4.17793	0.0065314
H	-2.10186	3.10866	1.45576
H	-3.06719	2.73615	-0.0210758
C	0.290177	0.0533316	-2.18329
C	1.06372	-0.561237	-1.08098
O	0.599066	-1.47605	-0.414918
H	-0.705891	-0.435775	-2.2502
H	0.823256	-0.0835239	-3.14758
H	0.145979	1.13753	-1.9915
N	2.28169	-0.0611697	-0.85996
C	3.13561	-0.52662	0.20434
C	4.0352	0.620316	0.62487
O	4.07355	1.66222	-0.026806
H	2.62999	0.710828	-1.38395
H	2.5276	-0.790388	1.06071
C	3.97915	-1.73635	-0.254175
H	4.61094	-1.4633	-1.12615
H	4.63079	-2.1127	0.56084
H	3.30038	-2.56048	-0.564711
N	4.77844	0.456663	1.737
C	5.65964	1.49559	2.2169
H	4.73079	-0.392024	2.25327
H	6.18289	1.17067	3.14312
H	5.08578	2.4228	2.44549
H	6.42754	1.74526	1.44936
