44
  This energy is -2.5268 and Call times are: 85947
C	0.861164	2.49909	-2.26398
C	0.515137	1.09674	-1.94022
O	0.26305	0.287219	-2.822
H	0.825349	2.6412	-3.36598
H	1.8852	2.73337	-1.90452
H	0.135205	3.19193	-1.78853
N	0.4931	0.774858	-0.644738
C	0.132352	-0.538697	-0.172517
C	-0.468015	-0.394755	1.21327
O	-0.428466	0.680533	1.80817
H	0.660544	1.45506	0.0631825
H	-0.635307	-0.951064	-0.815389
C	1.36452	-1.46907	-0.134844
H	2.14816	-1.05171	0.532813
H	1.09713	-2.48758	0.213961
H	1.79212	-1.5534	-1.15778
N	-1.04941	-1.48124	1.75876
C	-1.65196	-1.43766	3.07071
H	-1.07518	-2.34142	1.26027
H	-2.07653	-2.42942	3.34161
H	-2.47275	-0.6849	3.10117
H	-0.897326	-1.15694	3.84069
C	4.60786	-3.31878	0.828338
C	4.86036	-1.90829	1.19972
O	4.69678	-1.51679	2.34705
H	4.25602	-3.87683	1.72312
H	5.5418	-3.78943	0.455534
H	3.82687	-3.37321	0.0408308
N	5.26961	-1.10046	0.218742
C	5.51438	0.306473	0.416714
C	5.26062	1.02025	-0.897704
O	5.06928	0.38479	-1.93273
H	5.3588	-1.42444	-0.718775
H	4.80485	0.694642	1.13679
C	6.96182	0.552566	0.895875
H	7.69017	0.163952	0.152547
H	7.15852	1.63106	1.06522
H	7.12744	0.0145888	1.85478
N	5.24482	2.36769	-0.884628
C	5.00581	3.13252	-2.08632
H	5.39766	2.86415	-0.0365483
H	5.03183	4.22328	-1.86996
H	4.0091	2.88455	-2.51801
H	5.78036	2.90881	-2.85519
