44
  This energy is -1.0257 and Call times are: 89395
C	1.94972	2.77988	-0.763894
C	0.673745	2.15904	-0.342497
O	-0.245051	2.83653	0.0970776
H	1.89878	3.87702	-0.591911
H	2.12784	2.59329	-1.8438
H	2.79203	2.36224	-0.172974
N	0.589363	0.832546	-0.467716
C	-0.572001	0.0819881	-0.0597239
C	-0.120354	-1.3122	0.332457
O	1.03161	-1.68465	0.118012
H	1.36053	0.290267	-0.788812
H	-1.00278	0.541256	0.82126
C	-1.61282	0.0136323	-1.1987
H	-1.17458	-0.466993	-2.09925
H	-2.51775	-0.549983	-0.892173
H	-1.92303	1.04509	-1.47476
N	-1.02211	-2.11713	0.928243
C	-0.681379	-3.45853	1.34142
H	-1.94826	-1.79646	1.09706
H	-1.55631	-3.9595	1.81126
H	0.151813	-3.44205	2.08088
H	-0.355526	-4.0681	0.467706
C	5.92354	-2.55702	2.33129
C	5.51328	-1.18509	1.95625
O	4.85783	-0.48942	2.71969
H	5.52912	-2.79464	3.34313
H	7.03103	-2.63359	2.35015
H	5.51481	-3.2907	1.60484
N	5.89523	-0.760431	0.749532
C	5.53551	0.534375	0.227392
C	5.47956	0.435421	-1.28544
O	5.87684	-0.573121	-1.86571
H	6.39341	-1.35314	0.12314
H	4.54194	0.794491	0.570592
C	6.55706	1.60789	0.662399
H	7.57475	1.34687	0.301529
H	6.28356	2.61191	0.27812
H	6.58707	1.65736	1.7728
N	4.97331	1.48492	-1.9624
C	4.87535	1.47875	-3.40342
H	4.65313	2.29053	-1.475
H	4.43299	2.43058	-3.7716
H	4.23322	0.636772	-3.74986
H	5.88194	1.35792	-3.86529
