44
  This energy is -2.1569 and Call times are: 95287
C	1.81768	1.44047	2.59495
C	1.13656	1.51501	1.28283
O	0.928003	2.59026	0.738083
H	2.05373	2.46881	2.94519
H	2.76344	0.866143	2.50313
H	1.15812	0.949251	3.34114
N	0.76694	0.353015	0.739204
C	0.0568745	0.267348	-0.512606
C	-0.792015	-0.9898	-0.489789
O	-0.670472	-1.81549	0.413083
H	0.907049	-0.511254	1.21384
H	-0.617333	1.1103	-0.599281
C	1.03986	0.235408	-1.70338
H	1.72488	-0.635172	-1.62046
H	0.504876	0.183475	-2.67375
H	1.65598	1.16098	-1.6956
N	-1.68362	-1.16038	-1.48577
C	-2.53839	-2.3232	-1.54416
H	-1.77028	-0.479236	-2.20521
H	-3.20106	-2.27975	-2.43647
H	-3.17887	-2.38594	-0.6347
H	-1.93077	-3.25509	-1.60346
C	7.71299	-2.52883	1.89141
C	7.0763	-2.03123	0.65118
O	7.07464	-2.70124	-0.372288
H	8.15766	-3.52957	1.69998
H	6.95716	-2.62004	2.69959
H	8.51694	-1.83414	2.21414
N	6.51393	-0.822166	0.716674
C	5.89392	-0.186759	-0.419283
C	6.01078	1.31552	-0.243045
O	6.41375	1.7961	0.814481
H	6.55919	-0.271624	1.54535
H	6.43911	-0.449573	-1.31723
C	4.41206	-0.603682	-0.543877
H	3.84998	-0.324799	0.372824
H	3.92721	-0.13181	-1.42296
H	4.35019	-1.70735	-0.663947
N	5.66629	2.09612	-1.28612
C	5.74996	3.53618	-1.21263
H	5.34634	1.68864	-2.13504
H	5.42391	3.99844	-2.17035
H	6.79616	3.85881	-1.00605
H	5.10068	3.92645	-0.395766
