44
  This energy is -0.6715 and Call times are: 83498
C	1.93606	-2.77431	0.81704
C	0.704641	-1.96229	0.941043
O	-0.286202	-2.39803	1.51093
H	1.77033	-3.76722	1.28879
H	2.78097	-2.26905	1.33043
H	2.19014	-2.92309	-0.25366
N	0.74058	-0.743095	0.398234
C	-0.393798	0.146702	0.401093
C	-0.291453	1.04744	-0.815354
O	0.723804	1.05629	-1.50882
H	1.5405	-0.418038	-0.0980852
H	-1.30268	-0.432864	0.297763
C	-0.432031	0.987687	1.6959
H	0.495584	1.59046	1.79705
H	-1.30876	1.66699	1.71633
H	-0.498918	0.307857	2.57323
N	-1.35222	1.82516	-1.10853
C	-1.34808	2.71033	-2.24987
H	-2.16638	1.8011	-0.537894
H	-2.31005	3.26414	-2.32151
H	-1.204	2.13471	-3.19283
H	-0.5212	3.4525	-2.16868
C	5.66076	2.56129	2.34877
C	6.33451	1.38437	1.75541
O	7.47513	1.07971	2.0757
H	6.35445	3.06269	3.05817
H	4.75071	2.24378	2.89991
H	5.37797	3.28202	1.55275
N	5.6315	0.686952	0.859994
C	6.16778	-0.45717	0.165779
C	5.47827	-0.55874	-1.18175
O	4.51163	0.152235	-1.44975
H	4.7192	0.971184	0.579304
H	7.22231	-0.298715	-0.0225978
C	5.95189	-1.74958	0.983275
H	4.8695	-1.9182	1.16777
H	6.37286	-2.63578	0.465622
H	6.45814	-1.64971	1.9682
N	5.96853	-1.44601	-2.06968
C	5.38082	-1.60847	-3.37902
H	6.75395	-2.00956	-1.83604
H	5.92523	-2.38452	-3.96091
H	5.4199	-0.651708	-3.94856
H	4.31363	-1.91705	-3.29531
