44
  This energy is -1.5654 and Call times are: 88182
C	-1.50974	-2.98647	0.956216
C	-0.618452	-2.2011	0.0730732
O	0.126264	-2.75179	-0.726022
H	-1.35362	-4.07049	0.765389
H	-2.5713	-2.73457	0.750341
H	-1.279	-2.77217	2.02108
N	-0.674828	-0.873494	0.202126
C	0.162723	0.0211505	-0.557268
C	0.37967	1.2778	0.264513
O	-0.252862	1.4693	1.30131
H	-1.25625	-0.441535	0.88567
H	1.13208	-0.437732	-0.706953
C	-0.487965	0.367329	-1.91447
H	-1.47781	0.847708	-1.76126
H	0.153719	1.04465	-2.51448
H	-0.644648	-0.567681	-2.49547
N	1.29206	2.16499	-0.178715
C	1.56989	3.38656	0.540151
H	1.79685	1.99053	-1.01766
H	2.34956	3.98242	0.016422
H	1.93247	3.16272	1.56957
H	0.650556	4.00995	0.625875
C	5.20101	-0.71382	3.36149
C	4.9656	0.238583	2.25304
O	4.70662	1.41382	2.4725
H	5.08329	-0.184358	4.33188
H	6.23	-1.12626	3.29964
H	4.46633	-1.54513	3.31426
N	5.04979	-0.25748	1.01642
C	4.80403	0.536266	-0.161767
C	4.28917	-0.383557	-1.25283
O	4.30082	-1.6041	-1.10504
H	5.22101	-1.22515	0.85467
H	4.02267	1.25581	0.0488531
C	6.09173	1.25422	-0.621779
H	6.89034	0.515944	-0.848089
H	5.91229	1.87967	-1.52019
H	6.4549	1.9156	0.194934
N	3.81434	0.185788	-2.37817
C	3.2987	-0.609421	-3.46809
H	3.80937	1.17532	-2.4776
H	2.95588	0.0417603	-4.30217
H	2.43628	-1.22805	-3.12924
H	4.08375	-1.29634	-3.85921
