44
  This energy is 0.1164 and Call times are: 94161
C	-1.1045	2.40925	-2.25572
C	-0.127381	1.38937	-1.81276
O	0.760624	0.997967	-2.55752
H	-0.886514	2.69418	-3.30794
H	-1.03046	3.31357	-1.61582
H	-2.13564	2.00086	-2.20026
N	-0.274205	0.927701	-0.568703
C	0.572616	-0.0972706	-0.0111282
C	-0.228242	-0.858835	1.0282
O	-1.33545	-0.461275	1.38564
H	-1.02674	1.22605	0.0114212
H	0.842254	-0.800321	-0.789361
C	1.83826	0.518335	0.624816
H	1.56245	1.23177	1.43041
H	2.50518	-0.261916	1.04546
H	2.40448	1.07732	-0.151894
N	0.313828	-1.98414	1.53403
C	-0.37721	-2.77737	2.52369
H	1.20907	-2.29202	1.22935
H	0.231374	-3.66221	2.81337
H	-1.35332	-3.13837	2.12601
H	-0.578801	-2.17531	3.43913
C	9.55861	-1.34643	-0.568369
C	8.64428	-0.42071	0.137461
O	9.00645	0.18937	1.13398
H	10.5346	-1.3749	-0.0369354
H	9.72628	-0.99896	-1.60947
H	9.12865	-2.37011	-0.58527
N	7.4165	-0.296087	-0.37187
C	6.40231	0.533822	0.229135
C	5.04646	-0.057964	-0.107078
O	4.94392	-0.977531	-0.916762
H	7.12342	-0.830385	-1.15958
H	6.50889	0.504537	1.30636
C	6.50176	1.98653	-0.285623
H	6.38195	2.01826	-1.38956
H	5.73482	2.63866	0.180262
H	7.5046	2.39662	-0.0356615
N	3.9682	0.454258	0.518222
C	2.63809	-0.0490389	0.2659
H	4.07169	1.1954	1.17326
H	1.88744	0.500475	0.875656
H	2.57265	-1.13147	0.521534
H	2.37072	0.0685556	-0.809194
