44
  This energy is -4.175 and Call times are: 94434
C	-0.137689	3.47386	-0.161304
C	-0.258283	2.19784	0.57921
O	-0.356552	2.18036	1.79841
H	-0.136742	4.31898	0.560948
H	-0.995223	3.59574	-0.855943
H	0.810843	3.49326	-0.738366
N	-0.250943	1.08272	-0.154852
C	-0.31718	-0.23508	0.426155
C	0.395975	-1.19842	-0.503869
O	0.761972	-0.840156	-1.62164
H	-0.129085	1.11116	-1.14288
H	0.219248	-0.238124	1.36683
C	-1.78343	-0.671791	0.637445
H	-2.33139	-0.678997	-0.328846
H	-1.84764	-1.67931	1.09711
H	-2.28789	0.0516519	1.31457
N	0.618369	-2.45009	-0.0567942
C	1.29461	-3.43408	-0.869601
H	0.318427	-2.7201	0.852164
H	1.38136	-4.40067	-0.326093
H	2.31988	-3.08751	-1.13413
H	0.735625	-3.61299	-1.81653
C	3.23085	1.48441	2.37233
C	4.12291	0.392443	1.92175
O	4.52363	-0.460228	2.702
H	3.04311	1.37889	3.46296
H	2.2611	1.43305	1.8341
H	3.7066	2.4698	2.18326
N	4.46041	0.396665	0.630064
C	5.35509	-0.575822	0.0535518
C	6.06016	0.0699293	-1.12435
O	5.71048	1.17291	-1.54012
H	4.15927	1.12071	0.016111
H	6.11432	-0.837558	0.779975
C	4.58353	-1.83421	-0.400765
H	3.81158	-1.56774	-1.15384
H	5.26335	-2.59632	-0.833835
H	4.06909	-2.28558	0.475561
N	7.08244	-0.603976	-1.6872
C	7.81599	-0.0658046	-2.80901
H	7.35338	-1.49337	-1.33416
H	8.61767	-0.767828	-3.12792
H	8.28844	0.906491	-2.53936
H	7.13738	0.108579	-3.67517
