44
  This energy is 0.1569 and Call times are: 94887
C	0.901794	-2.72808	-1.96393
C	1.17493	-1.7516	-0.885492
O	2.12083	-1.89793	-0.123739
H	1.65457	-3.54491	-1.91912
H	0.968205	-2.23215	-2.95509
H	-0.110971	-3.16537	-1.83675
N	0.335845	-0.717128	-0.795095
C	0.447265	0.291531	0.228992
C	-0.9384	0.847512	0.498009
O	-1.88747	0.550454	-0.224992
H	-0.453465	-0.633469	-1.39664
H	0.794317	-0.167538	1.14629
C	1.4074	1.41904	-0.20932
H	1.04619	1.89734	-1.14462
H	1.5124	2.19496	0.57645
H	2.41289	0.98811	-0.408425
N	-1.08862	1.66667	1.55747
C	-2.37114	2.23919	1.89442
H	-0.309656	1.89212	2.13319
H	-2.2891	2.88372	2.79724
H	-3.11657	1.43776	2.10252
H	-2.75739	2.86016	1.05398
C	9.7565	1.5288	-0.353788
C	8.89878	0.325737	-0.263814
O	9.33683	-0.785235	-0.528892
H	10.7711	1.23163	-0.697445
H	9.84177	2.01331	0.641563
H	9.32804	2.25075	-1.08062
N	7.63476	0.525195	0.116814
C	6.66942	-0.541651	0.209072
C	5.29232	0.0436136	-0.0411544
O	5.12816	1.26014	-0.110648
H	7.2818	1.44029	0.289633
H	6.85992	-1.26452	-0.574381
C	6.72621	-1.21863	1.59605
H	6.52043	-0.479629	2.39953
H	5.99707	-2.0509	1.67481
H	7.74491	-1.63262	1.76093
N	4.26548	-0.816027	-0.191595
C	2.92045	-0.351138	-0.438497
H	4.41876	-1.7971	-0.136153
H	2.21896	-1.20915	-0.53314
H	2.87679	0.242757	-1.38012
H	2.5697	0.298397	0.395902
