44
  This energy is -3.9632 and Call times are: 92633
C	2.14066	2.41131	-1.30991
C	1.06136	1.98863	-0.389251
O	0.678534	2.71846	0.514745
H	2.49952	3.42159	-1.01592
H	1.7598	2.45437	-2.35194
H	2.9904	1.69845	-1.2563
N	0.540345	0.777943	-0.601723
C	-0.486363	0.211488	0.237061
C	-0.345405	-1.29865	0.202726
O	0.424844	-1.84148	-0.587062
H	0.890599	0.178987	-1.31617
H	-0.326136	0.527228	1.26042
C	-1.89037	0.635409	-0.246971
H	-2.05926	0.302514	-1.29325
H	-2.68909	0.216864	0.399087
H	-1.96819	1.74429	-0.221084
N	-1.08561	-2.01564	1.07108
C	-1.01363	-3.45754	1.11495
H	-1.70015	-1.55822	1.70527
H	-1.6963	-3.86183	1.89452
H	0.0229495	-3.79211	1.34913
H	-1.30419	-3.89565	0.132725
C	2.70737	-0.377931	2.29089
C	3.68989	-0.930964	1.33174
O	3.89602	-2.13462	1.26
H	2.26197	-1.20857	2.88039
H	1.89715	0.151137	1.74648
H	3.20753	0.328492	2.9865
N	4.32999	-0.0475343	0.562195
C	5.34468	-0.430204	-0.387817
C	6.3092	0.730492	-0.542955
O	6.06254	1.82565	-0.0414673
H	4.18117	0.932257	0.660766
H	5.90737	-1.2665	0.00793053
C	4.71524	-0.796904	-1.74964
H	4.14662	0.0641749	-2.16105
H	5.4852	-1.10666	-2.48566
H	4.00726	-1.64297	-1.61079
N	7.44221	0.513156	-1.23942
C	8.42155	1.55672	-1.43444
H	7.62609	-0.38093	-1.63423
H	9.28168	1.18215	-2.03203
H	8.80758	1.92113	-0.454917
H	7.97155	2.42261	-1.9719
