44
  This energy is -0.8371 and Call times are: 94800
C	-1.13428	-0.390322	3.26707
C	-0.685893	0.451465	2.13504
O	-0.812049	1.66792	2.16194
H	-1.58033	0.257713	4.05254
H	-0.272123	-0.939183	3.70085
H	-1.90005	-1.11741	2.92348
N	-0.145056	-0.18977	1.09644
C	0.298403	0.489176	-0.0955885
C	0.175936	-0.473635	-1.26159
O	-0.0866253	-1.66002	-1.07378
H	-0.0865617	-1.18367	1.07189
H	-0.360292	1.32482	-0.296732
C	1.75706	0.97359	0.055723
H	2.43473	0.115438	0.251617
H	2.10565	1.51014	-0.850436
H	1.8246	1.6705	0.919494
N	0.356443	0.0206152	-2.50222
C	0.253899	-0.819267	-3.6728
H	0.56415	0.984192	-2.63431
H	0.434562	-0.228468	-4.59775
H	-0.760083	-1.27584	-3.74103
H	1.00179	-1.64395	-3.63159
C	9.047	-1.09148	-2.70607
C	8.24299	-0.0628195	-2.00851
O	8.21014	1.09305	-2.40763
H	9.57221	-0.62514	-3.56778
H	8.38804	-1.90187	-3.08263
H	9.80227	-1.52081	-2.01447
N	7.56723	-0.467896	-0.930714
C	6.77569	0.426749	-0.123483
C	6.75261	-0.111201	1.29484
O	7.20568	-1.22453	1.55358
H	7.63646	-1.40273	-0.594323
H	7.25412	1.39771	-0.0924568
C	5.34014	0.547891	-0.680069
H	4.84519	-0.446377	-0.702245
H	4.72467	1.24484	-0.0751162
H	5.38175	0.935696	-1.72133
N	6.22781	0.67666	2.25394
C	6.16824	0.251183	3.63292
H	5.86987	1.57605	2.0258
H	5.70317	1.03758	4.26738
H	7.19048	0.0440417	4.02458
H	5.56556	-0.68064	3.73107
