44
  This energy is -6.4373 and Call times are: 87688
C	-2.98803	1.77697	-0.163517
C	-1.88574	1.0197	-0.798051
O	-1.9568	0.655715	-1.96376
H	-3.81271	1.90925	-0.89719
H	-2.62948	2.77727	0.158339
H	-3.37589	1.22261	0.717019
N	-0.825093	0.759976	-0.0299647
C	0.306476	-0.00373666	-0.49349
C	0.932055	-0.695816	0.70285
O	0.569011	-0.427562	1.84651
H	-0.799377	1.0273	0.929068
H	-0.0369931	-0.776441	-1.16994
C	1.3386	0.908199	-1.1923
H	1.69915	1.69467	-0.495518
H	2.20827	0.329787	-1.56599
H	0.856908	1.41032	-2.05959
N	1.88792	-1.61523	0.464055
C	2.53596	-2.3288	1.53972
H	2.16536	-1.82162	-0.468416
H	3.29154	-3.04069	1.14031
H	1.79043	-2.90568	2.13359
H	3.0511	-1.61977	2.2275
C	5.89421	-2.27446	-2.58754
C	5.60837	-1.95402	-1.17093
O	5.22892	-2.8166	-0.390945
H	5.69034	-3.35218	-2.76868
H	6.95988	-2.06635	-2.81947
H	5.24573	-1.66888	-3.25523
N	5.7854	-0.683046	-0.802592
C	5.50717	-0.210454	0.530751
C	5.1241	1.25485	0.442878
O	5.2485	1.87623	-0.610742
H	6.05534	0.0158988	-1.45869
H	4.65261	-0.74402	0.927808
C	6.73524	-0.394946	1.44893
H	7.60935	0.160858	1.0476
H	6.52906	-0.0475129	2.48203
H	7.00252	-1.47339	1.49206
N	4.63784	1.84174	1.55424
C	4.24187	3.23073	1.56404
H	4.54069	1.32145	2.39622
H	3.86833	3.52609	2.56926
H	3.43161	3.41342	0.821484
H	5.10355	3.88695	1.30322
