44
  This energy is -4.4572 and Call times are: 90522
C	-0.658137	1.66588	2.98402
C	-0.954657	0.613477	1.98619
O	-1.75175	-0.2822	2.2287
H	-1.24309	1.47033	3.90894
H	-0.940266	2.66259	2.58437
H	0.423521	1.66123	3.23519
N	-0.306004	0.699389	0.82247
C	-0.457544	-0.274491	-0.229744
C	0.831941	-0.312797	-1.02806
O	1.71516	0.521237	-0.838275
H	0.370371	1.41102	0.655254
H	-0.594979	-1.25523	0.208312
C	-1.65004	0.0822041	-1.14405
H	-1.50454	1.08379	-1.60198
H	-1.7857	-0.667719	-1.95011
H	-2.58142	0.112376	-0.537439
N	0.973621	-1.29447	-1.94035
C	2.16848	-1.41375	-2.74301
H	0.249613	-1.96252	-2.07671
H	2.0937	-2.28313	-3.4328
H	3.06397	-1.55606	-2.0956
H	2.3258	-0.49469	-3.35269
C	4.39569	-2.9752	1.70169
C	4.52713	-1.50139	1.6598
O	4.18078	-0.807838	2.60607
H	3.94317	-3.27616	2.67149
H	5.39434	-3.45129	1.60796
H	3.74085	-3.32462	0.875761
N	5.03758	-0.982679	0.540523
C	5.18675	0.436469	0.334803
C	5.09471	0.710765	-1.15445
O	5.08504	-0.21318	-1.96558
H	5.27682	-1.55714	-0.237048
H	4.36312	0.954798	0.809772
C	6.53641	0.936276	0.895042
H	7.38203	0.412369	0.400582
H	6.65716	2.03006	0.755111
H	6.58506	0.718039	1.98424
N	5.01596	1.99668	-1.54969
C	4.91978	2.35379	-2.9459
H	5.02109	2.73033	-0.878271
H	4.86445	3.45816	-3.06646
H	4.00877	1.90514	-3.40422
H	5.80729	1.98351	-3.50836
