44
  This energy is -3.435 and Call times are: 92774
C	0.213141	-3.42433	-0.584123
C	-0.00557357	-2.0348	-1.0451
O	-0.0519147	-1.76317	-2.23694
H	0.332395	-4.08964	-1.46675
H	-0.656769	-3.77107	0.0123465
H	1.1326	-3.48159	0.0358812
N	-0.144853	-1.10884	-0.0934864
C	-0.320792	0.291774	-0.386567
C	0.248395	1.09209	0.769749
O	0.60023	0.535497	1.80808
H	-0.0638743	-1.33899	0.87209
H	0.252947	0.546945	-1.2688
C	-1.81355	0.628477	-0.595227
H	-2.40093	0.376681	0.313413
H	-1.96088	1.70142	-0.835258
H	-2.21102	0.0256822	-1.44081
N	0.360243	2.42575	0.611994
C	0.895727	3.26812	1.65595
H	0.0740233	2.85742	-0.237011
H	0.906277	4.33314	1.33526
H	1.93869	2.96738	1.90707
H	0.280604	3.18642	2.5812
C	4.37508	3.44775	-0.0161932
C	4.64229	2.17232	0.685983
O	5.00237	2.15668	1.85496
H	4.57225	4.29583	0.674981
H	3.31489	3.48971	-0.343284
H	5.03884	3.54367	-0.901234
N	4.47082	1.05584	-0.025675
C	4.73299	-0.257868	0.507234
C	5.13013	-1.16418	-0.642748
O	5.02708	-0.785186	-1.80785
H	4.21692	1.08635	-0.988204
H	5.57677	-0.206958	1.18404
C	3.48963	-0.817079	1.2329
H	2.62657	-0.8794	0.536274
H	3.68322	-1.82251	1.6597
H	3.21233	-0.133979	2.06526
N	5.60465	-2.38834	-0.338984
C	6.01254	-3.3174	-1.36691
H	5.68453	-2.67548	0.609827
H	6.37341	-4.26839	-0.916775
H	6.83548	-2.88631	-1.9819
H	5.16066	-3.55157	-2.04559
