44
  This energy is -3.0485 and Call times are: 88606
C	1.75972	-0.176809	-2.99747
C	1.17702	-0.803182	-1.78947
O	1.10064	-2.01927	-1.68123
H	2.0613	-0.971415	-3.71408
H	2.65536	0.420077	-2.72489
H	1.01115	0.48221	-3.48576
N	0.743869	0.0290722	-0.839674
C	0.114284	-0.430209	0.373274
C	-0.841425	0.648239	0.847747
O	-0.853537	1.75709	0.31669
H	0.775441	1.0172	-0.959951
H	-0.475925	-1.31212	0.157591
C	1.16804	-0.736245	1.46009
H	1.76682	0.170934	1.68929
H	0.69662	-1.10398	2.39446
H	1.86122	-1.52211	1.08823
N	-1.676	0.342581	1.8607
C	-2.62384	1.30331	2.37529
H	-1.65418	-0.561328	2.27488
H	-3.21899	0.862784	3.20532
H	-3.3267	1.62922	1.57464
H	-2.09787	2.20626	2.76151
C	7.47642	-2.08682	-2.01168
C	6.6649	-1.82994	-0.800642
O	6.30624	-2.74556	-0.0730396
H	7.65114	-3.18014	-2.1116
H	8.45689	-1.57203	-1.93163
H	6.94148	-1.72438	-2.91475
N	6.35088	-0.555602	-0.556004
C	5.53126	-0.153703	0.559909
C	4.80704	1.12378	0.178971
O	5.09212	1.72499	-0.854944
H	6.61551	0.17431	-1.17975
H	4.77771	-0.910146	0.74039
C	6.39043	0.067312	1.82412
H	7.15685	0.850745	1.64281
H	5.76906	0.363702	2.69393
H	6.91727	-0.877927	2.07967
N	3.84059	1.56557	1.00771
C	3.09392	2.76908	0.72452
H	3.62141	1.0632	1.83757
H	2.34504	2.96442	1.52343
H	2.55494	2.67765	-0.246269
H	3.77516	3.6482	0.659698
