44
  This energy is -4.3189 and Call times are: 89640
C	0.175263	-3.05688	1.65452
C	-0.399209	-1.70493	1.47191
O	-1.41382	-1.36308	2.06362
H	-0.462841	-3.63521	2.35755
H	1.19969	-2.98363	2.07633
H	0.213605	-3.59098	0.681713
N	0.247681	-0.893779	0.631706
C	-0.21396	0.43577	0.31906
C	0.256654	0.782878	-1.08079
O	1.04849	0.0557302	-1.67742
H	1.0491	-1.20041	0.126167
H	-1.29674	0.444277	0.306734
C	0.324078	1.46113	1.34101
H	1.43494	1.4603	1.34649
H	-0.0357034	2.48673	1.11912
H	-0.0260021	1.18295	2.35906
N	-0.230211	1.90641	-1.64352
C	0.156489	2.31421	-2.97406
H	-0.873192	2.47978	-1.14663
H	-0.350705	3.26265	-3.25768
H	-0.118313	1.53328	-3.71966
H	1.25748	2.47432	-3.03168
C	6.10839	-3.19613	0.938419
C	6.22195	-1.99163	0.0855175
O	7.17556	-1.83466	-0.664423
H	6.99617	-3.84548	0.777024
H	5.19311	-3.76673	0.674916
H	6.06644	-2.90436	2.00902
N	5.23466	-1.09851	0.185396
C	5.22686	0.142252	-0.548766
C	4.44811	1.16423	0.257878
O	3.81642	0.828495	1.25785
H	4.48579	-1.22091	0.830433
H	6.24149	0.50923	-0.640832
C	4.59036	-0.0458557	-1.9433
H	3.5459	-0.41229	-1.84915
H	4.59103	0.899426	-2.52379
H	5.17163	-0.80355	-2.51284
N	4.48271	2.44601	-0.156693
C	3.77673	3.48863	0.550908
H	5.00274	2.69894	-0.965811
H	3.92847	4.47268	0.0550789
H	4.13991	3.56577	1.60135
H	2.68379	3.27445	0.578362
