44
  This energy is 0.1044 and Call times are: 90228
C	-0.00171186	-1.9739	-2.86643
C	0.39129	-1.71432	-1.46311
O	0.898239	-2.58983	-0.775441
H	0.224166	-3.03214	-3.12136
H	0.565956	-1.31008	-3.55188
H	-1.09005	-1.79699	-2.99802
N	0.159546	-0.483849	-0.999837
C	0.448171	-0.0933256	0.357641
C	-0.517141	1.01009	0.747781
O	-1.24887	1.5324	-0.0909606
H	-0.291297	0.206117	-1.5589
H	0.263398	-0.931794	1.01753
C	1.90823	0.391416	0.493677
H	2.09537	1.25827	-0.175337
H	2.1469	0.681902	1.53731
H	2.59667	-0.429249	0.19552
N	-0.546858	1.38638	2.04144
C	-1.43718	2.42427	2.5065
H	0.0498819	0.949157	2.70613
H	-1.31287	2.58839	3.59958
H	-2.49871	2.14735	2.31218
H	-1.22933	3.38473	1.98166
C	2.85242	0.753643	-3.37994
C	2.55425	1.00332	-1.95168
O	1.98395	2.02443	-1.5932
H	2.49843	1.61626	-3.98528
H	2.33236	-0.164781	-3.72458
H	3.9467	0.636011	-3.52752
N	2.94267	0.0598796	-1.09061
C	2.7607	0.1806	0.334475
C	3.85986	-0.608835	1.0202
O	4.60703	-1.34049	0.373568
H	3.44229	-0.746742	-1.39326
H	2.87998	1.21742	0.623266
C	1.37158	-0.343634	0.759639
H	1.25271	-1.41029	0.472989
H	1.21394	-0.243281	1.85307
H	0.583019	0.243098	0.239779
N	3.98946	-0.47103	2.35445
C	5.0102	-1.17852	3.09182
H	3.37799	0.128839	2.85976
H	4.95418	-0.933023	4.17525
H	6.02432	-0.902735	2.72197
H	4.88771	-2.27963	2.97481
