44
  This energy is -2.9238 and Call times are: 89724
C	-1.63261	1.35034	-2.76113
C	-0.732712	1.47019	-1.59196
O	-0.0477918	2.46908	-1.42013
H	-1.54186	2.26289	-3.38954
H	-2.68581	1.249	-2.42463
H	-1.35263	0.465174	-3.37039
N	-0.713062	0.434626	-0.749589
C	0.14352	0.386683	0.409087
C	0.456973	-1.06773	0.705697
O	-0.12675	-1.97175	0.110942
H	-1.24554	-0.388569	-0.924744
H	1.08085	0.878642	0.180991
C	-0.53593	1.05311	1.62542
H	-1.49242	0.54213	1.86637
H	0.119245	1.03491	2.52037
H	-0.763336	2.11419	1.38302
N	1.39919	-1.32769	1.63343
C	1.76782	-2.68109	1.9778
H	1.86345	-0.582799	2.10105
H	2.55906	-2.68635	2.75955
H	2.15457	-3.22234	1.08406
H	0.886945	-3.24161	2.36642
C	3.66569	1.80168	-2.52124
C	4.48245	1.72687	-1.28898
O	5.06478	2.71115	-0.854814
H	3.71101	2.83459	-2.92977
H	2.60803	1.55071	-2.29516
H	4.05795	1.09613	-3.28375
N	4.54552	0.535267	-0.690245
C	5.33473	0.296381	0.492394
C	5.75867	-1.16028	0.49185
O	5.29293	-1.95143	-0.325995
H	4.09935	-0.266117	-1.07828
H	6.23617	0.894696	0.447167
C	4.52971	0.625557	1.76865
H	3.61016	0.00448036	1.82084
H	5.13122	0.458876	2.68567
H	4.2232	1.69409	1.74382
N	6.6652	-1.548	1.41048
C	7.13227	-2.91287	1.48236
H	7.03364	-0.892396	2.06126
H	7.87445	-3.03188	2.30226
H	7.6165	-3.21323	0.524978
H	6.2838	-3.60911	1.67339
