44
  This energy is 0.1274 and Call times are: 93231
C	-1.62291	-3.06543	-0.286337
C	-1.40299	-1.66307	-0.706052
O	-1.8971	-1.22572	-1.73609
H	-2.25238	-3.5811	-1.04379
H	-2.14385	-3.09437	0.69373
H	-0.651498	-3.59713	-0.204227
N	-0.640957	-0.916053	0.0962308
C	-0.302369	0.453444	-0.201085
C	1.03999	0.757969	0.436793
O	1.56591	-0.0409998	1.2093
H	-0.212206	-1.2978	0.910053
H	-0.184294	0.567952	-1.2714
C	-1.38561	1.41744	0.33047
H	-1.49971	1.30785	1.43002
H	-1.14325	2.47414	0.0955805
H	-2.36073	1.17112	-0.143676
N	1.63265	1.92583	0.119174
C	2.91343	2.29872	0.672998
H	1.19345	2.55755	-0.510993
H	3.23266	3.29329	0.290716
H	3.69266	1.55119	0.398606
H	2.86094	2.35048	1.78462
C	5.28503	-3.17334	-1.3614
C	5.2559	-2.24122	-0.211852
O	5.2813	-2.65468	0.939155
H	5.3123	-4.21923	-0.985574
H	6.18867	-2.99004	-1.97993
H	4.37656	-3.03943	-1.98576
N	5.19862	-0.939854	-0.504353
C	5.12123	0.0850752	0.506629
C	4.38579	1.27468	-0.0811948
O	4.11646	1.31894	-1.28003
H	5.13722	-0.620494	-1.44568
H	4.5326	-0.278568	1.33964
C	6.53133	0.500359	0.980312
H	7.13207	0.883361	0.127982
H	6.48476	1.27922	1.76881
H	7.05392	-0.387165	1.39929
N	4.03453	2.26933	0.757442
C	3.32729	3.43843	0.289262
H	4.25763	2.21358	1.72501
H	3.12905	4.14059	1.12885
H	2.35148	3.15133	-0.165333
H	3.92359	3.97523	-0.48366
