44
  This energy is -6.3761 and Call times are: 92249
C	2.30011	1.98858	-1.69344
C	1.85747	0.686964	-1.1448
O	2.43813	-0.350986	-1.43098
H	3.17072	1.8269	-2.36557
H	2.60359	2.66795	-0.869369
H	1.47899	2.45767	-2.27552
N	0.798946	0.714773	-0.331699
C	0.225874	-0.475782	0.245126
C	-1.25144	-0.223406	0.48048
O	-1.72792	0.901638	0.342791
H	0.311858	1.5622	-0.140698
H	0.304995	-1.29014	-0.464234
C	0.930562	-0.841181	1.56994
H	0.840601	-0.0102372	2.3017
H	0.507492	-1.76408	2.01693
H	2.01161	-1.01365	1.37518
N	-2.01657	-1.27445	0.835341
C	-3.43369	-1.1311	1.07496
H	-1.61365	-2.1779	0.937768
H	-3.8859	-2.10787	1.35539
H	-3.95027	-0.754849	0.162353
H	-3.62143	-0.407524	1.901
C	6.1281	3.3212	0.789028
C	5.99712	2.21347	-0.184083
O	6.00076	2.42552	-1.38884
H	6.20258	4.28518	0.240353
H	7.04337	3.1853	1.40267
H	5.23915	3.35378	1.45369
N	5.87412	0.986182	0.326809
C	5.69504	-0.186431	-0.49262
C	4.9142	-1.20977	0.310271
O	4.69121	-1.03462	1.50664
H	5.83174	0.833905	1.31011
H	5.09609	0.0702221	-1.3575
C	7.05762	-0.766886	-0.930422
H	7.66828	-1.04014	-0.0435884
H	6.93293	-1.66217	-1.57341
H	7.61494	0.00158896	-1.50937
N	4.47072	-2.30573	-0.336429
C	3.71441	-3.33081	0.344292
H	4.65759	-2.42777	-1.30558
H	3.44096	-4.14926	-0.357565
H	2.77658	-2.90815	0.772206
H	4.30826	-3.76837	1.17917
