44
  This energy is -4.7443 and Call times are: 94462
C	-0.541325	-2.92444	-1.80757
C	0.354672	-1.93009	-1.17543
O	1.5511	-2.14895	-1.04475
H	0.0483581	-3.82406	-2.08835
H	-1.00238	-2.49694	-2.72267
H	-1.34021	-3.22564	-1.09753
N	-0.215666	-0.79659	-0.760376
C	0.518517	0.246539	-0.088501
C	-0.439121	0.983403	0.82884
O	-1.64832	0.765533	0.783065
H	-1.1978	-0.650139	-0.836725
H	1.28339	-0.199579	0.534862
C	1.15008	1.2206	-1.10711
H	0.364843	1.68651	-1.73986
H	1.7297	2.02056	-0.602497
H	1.84084	0.658457	-1.77283
N	0.0846039	1.87303	1.69504
C	-0.74866	2.61739	2.61035
H	1.06591	2.03266	1.72006
H	-0.132315	3.29656	3.23969
H	-1.30727	1.92698	3.28308
H	-1.49165	3.23306	2.05352
C	5.83852	2.47987	2.35697
C	5.92344	1.08045	1.88201
O	6.64077	0.263903	2.44333
H	6.51356	2.61296	3.23016
H	4.79896	2.71635	2.66703
H	6.15141	3.17706	1.55131
N	5.18121	0.769204	0.816828
C	5.19148	-0.540185	0.213546
C	4.86709	-0.384476	-1.26026
O	4.49117	0.695619	-1.71168
H	4.63376	1.45506	0.345921
H	6.18846	-0.957262	0.282082
C	4.16677	-1.47108	0.898119
H	3.14234	-1.04881	0.81889
H	4.1749	-2.48651	0.451625
H	4.41893	-1.56409	1.97705
N	5.01426	-1.46604	-2.05055
C	4.73445	-1.4113	-3.46649
H	5.32346	-2.33026	-1.66768
H	4.91573	-2.40051	-3.94172
H	5.38508	-0.657743	-3.9666
H	3.67303	-1.12481	-3.64661
