44
  This energy is -0.4906 and Call times are: 88406
C	2.37981	-1.99827	1.56719
C	1.99355	-0.951003	0.594991
O	2.83677	-0.257332	0.043437
H	3.48519	-1.9998	1.6856
H	2.05594	-2.99612	1.20366
H	1.91297	-1.79521	2.55407
N	0.686495	-0.810444	0.362138
C	0.154976	0.193849	-0.525242
C	-1.23914	0.555902	-0.0488886
O	-1.79099	-0.0948468	0.83638
H	0.00980481	-1.35492	0.849485
H	0.761649	1.08822	-0.456804
C	0.113038	-0.322073	-1.98034
H	-0.517792	-1.23356	-2.05299
H	-0.281449	0.447099	-2.67552
H	1.14257	-0.588428	-2.3051
N	-1.84075	1.61586	-0.623849
C	-3.16504	2.03817	-0.231293
H	-1.37657	2.1325	-1.33567
H	-3.48469	2.92692	-0.818802
H	-3.18747	2.30619	0.849881
H	-3.90408	1.22178	-0.399989
C	7.17268	-3.36764	0.793321
C	6.63463	-2.07136	0.322891
O	5.5221	-1.99267	-0.179601
H	6.42886	-4.16889	0.59187
H	7.36984	-3.32657	1.88519
H	8.11452	-3.60845	0.256635
N	7.42802	-1.00865	0.47642
C	7.06047	0.311484	0.0284296
C	8.33194	1.06868	-0.305595
O	9.43454	0.60345	-0.0235342
H	8.34724	-1.09537	0.849743
H	6.48358	0.231194	-0.884466
C	6.25496	1.05817	1.11419
H	6.85033	1.15007	2.04753
H	5.95412	2.07089	0.775946
H	5.33317	0.482183	1.34846
N	8.20654	2.25812	-0.926495
C	9.36085	3.04727	-1.28844
H	7.30606	2.61612	-1.1502
H	9.05084	3.99057	-1.78975
H	10.0211	2.48103	-1.98463
H	9.95665	3.30981	-0.384434
