44
  This energy is -3.3817 and Call times are: 87405
C	-0.0296269	-0.63253	-3.42224
C	0.143951	0.275629	-2.26627
O	0.618591	1.39439	-2.40591
H	0.34503	-0.132435	-4.3417
H	-1.10396	-0.877344	-3.55865
H	0.545349	-1.56906	-3.26285
N	-0.241777	-0.195624	-1.0782
C	-0.0956463	0.554534	0.144285
C	0.0607736	-0.430229	1.28767
O	-0.113528	-1.63431	1.1101
H	-0.588334	-1.1235	-0.974231
H	0.813449	1.141	0.097029
C	-1.31806	1.46847	0.380211
H	-2.24969	0.866294	0.439298
H	-1.21123	2.06169	1.31145
H	-1.41781	2.1753	-0.472306
N	0.403978	0.0619977	2.4943
C	0.580785	-0.799846	3.63979
H	0.544689	1.03879	2.61739
H	0.862005	-0.207251	4.5381
H	1.38366	-1.54814	3.44813
H	-0.359912	-1.35274	3.86461
C	5.93891	3.39577	0.327013
C	5.738	2.0457	0.899819
O	6.01808	1.80476	2.06597
H	6.37215	4.06332	1.10323
H	4.96816	3.81745	-0.00852605
H	6.63758	3.34579	-0.534631
N	5.24151	1.11952	0.0763584
C	5.03112	-0.249383	0.476836
C	5.16045	-1.12737	-0.753606
O	5.2423	-0.631169	-1.87557
H	5.05687	1.3203	-0.88148
H	5.81213	-0.543811	1.16673
C	3.64063	-0.42706	1.12508
H	2.8386	-0.135126	0.414055
H	3.47207	-1.47411	1.45033
H	3.56553	0.230504	2.01856
N	5.19046	-2.46194	-0.569104
C	5.31676	-3.37598	-1.68029
H	5.12708	-2.84451	0.346701
H	5.32281	-4.42968	-1.32403
H	6.26343	-3.18888	-2.23715
H	4.46781	-3.25072	-2.39074
