44
  This energy is 0.1008 and Call times are: 89452
C	1.17765	-2.90817	-1.50612
C	1.39388	-1.57669	-0.896574
O	2.51707	-1.18767	-0.607596
H	2.15533	-3.42649	-1.61267
H	0.717402	-2.79903	-2.51062
H	0.514262	-3.52146	-0.860452
N	0.302761	-0.837778	-0.682425
C	0.349245	0.460644	-0.0575241
C	-0.970455	0.690311	0.654655
O	-1.91328	-0.0832812	0.498603
H	-0.608474	-1.18472	-0.885281
H	1.1275	0.467061	0.695412
C	0.599457	1.56813	-1.10447
H	-0.204333	1.56882	-1.87126
H	0.65118	2.57132	-0.633874
H	1.56635	1.37544	-1.61861
N	-1.06512	1.76257	1.46542
C	-2.27981	2.05841	2.18872
H	-0.290067	2.37474	1.58208
H	-2.1588	2.97943	2.80053
H	-2.5461	1.21779	2.8697
H	-3.12871	2.21421	1.48427
C	6.85706	2.59437	0.853867
C	6.54265	1.35056	0.115464
O	7.27563	0.939733	-0.773568
H	7.79517	3.03379	0.450497
H	6.99851	2.37356	1.93275
H	6.03426	3.33006	0.732103
N	5.42436	0.714843	0.472796
C	4.96425	-0.484068	-0.182542
C	3.45205	-0.533341	-0.0712342
O	2.84662	0.265459	0.640859
H	4.81669	1.08352	1.17042
H	5.20859	-0.431474	-1.23618
C	5.59553	-1.73975	0.457766
H	5.33642	-1.79978	1.53633
H	5.25978	-2.6687	-0.0470664
H	6.70242	-1.67845	0.37191
N	2.8029	-1.47438	-0.784727
C	1.36401	-1.59374	-0.745831
H	3.30983	-2.10918	-1.35843
H	1.02062	-2.42586	-1.3992
H	0.882163	-0.651978	-1.09538
H	1.01428	-1.79571	0.292457
