44
  This energy is -4.3138 and Call times are: 5264
C	1.48487	-3.13342	-0.29919
C	1.0881	-1.82075	-0.856504
O	1.50715	-1.44078	-1.94114
H	2.18737	-3.63323	-1.00102
H	0.591043	-3.77833	-0.165354
H	1.99142	-2.99635	0.67944
N	0.258262	-1.08628	-0.111987
C	-0.182182	0.230156	-0.501311
C	-0.473104	1.02345	0.758692
O	-0.479941	0.476425	1.8598
H	-0.0417775	-1.39136	0.787328
H	0.62096	0.735902	-1.02267
C	-1.44055	0.149596	-1.39309
H	-2.26811	-0.359796	-0.854858
H	-1.78142	1.15624	-1.7109
H	-1.20675	-0.44188	-2.30515
N	-0.713453	2.34273	0.625439
C	-0.994446	3.17915	1.76895
H	-0.699508	2.76811	-0.273408
H	-1.16407	4.23227	1.45369
H	-0.143104	3.1612	2.4874
H	-1.90452	2.82192	2.30308
C	4.90824	0.305423	3.38663
C	4.66537	-0.274313	2.04645
O	3.91455	-1.22827	1.89602
H	4.33384	-0.269571	4.14512
H	4.57614	1.36459	3.41133
H	5.98872	0.251091	3.63699
N	5.30897	0.298436	1.02658
C	5.20693	-0.180982	-0.329259
C	6.49678	0.161976	-1.05053
O	7.33671	0.891081	-0.526471
H	5.94852	1.04821	1.17031
H	5.1192	-1.26027	-0.320874
C	3.99801	0.455061	-1.04982
H	4.09276	1.56174	-1.06796
H	3.9005	0.0833446	-2.09041
H	3.06625	0.197679	-0.500354
N	6.68798	-0.366802	-2.27522
C	7.88741	-0.100662	-3.03463
H	5.99867	-0.957817	-2.68096
H	7.85673	-0.625332	-4.01494
H	8.78889	-0.447682	-2.47947
H	7.99814	0.991495	-3.22456
