44
  This energy is -2.2864 and Call times are: 5228
C	2.83516	-1.0731	1.70968
C	1.55243	-0.337116	1.6459
O	1.01819	0.092656	2.65897
H	3.15882	-1.15582	2.77001
H	3.61643	-0.530805	1.13673
H	2.71176	-2.09413	1.29093
N	1.02068	-0.175509	0.432022
C	-0.244139	0.481425	0.214709
C	-0.868602	-0.0981178	-1.04057
O	-0.230347	-0.854682	-1.76993
H	1.44671	-0.566629	-0.378773
H	-0.90948	0.2571	1.03911
C	-0.0556129	2.00752	0.0707565
H	0.618501	2.23862	-0.781419
H	-1.02397	2.52628	-0.0831734
H	0.409902	2.40883	0.997364
N	-2.14336	0.239595	-1.31802
C	-2.82221	-0.267546	-2.4877
H	-2.6448	0.849836	-0.713678
H	-3.86184	0.124463	-2.53989
H	-2.86811	-1.38046	-2.46355
H	-2.28588	0.0358005	-3.41585
C	5.5047	3.31742	-0.341898
C	5.31343	1.86856	-0.577257
O	4.26086	1.43328	-1.0234
H	4.57293	3.85972	-0.613109
H	6.33828	3.7	-0.967618
H	5.73064	3.50457	0.729082
N	6.34501	1.07692	-0.27471
C	6.29406	-0.357646	-0.408841
C	7.23884	-0.962059	0.61275
O	8.00545	-0.251067	1.25967
H	7.18058	1.44167	0.126066
H	5.29618	-0.703571	-0.169673
C	6.69031	-0.792651	-1.83677
H	7.71797	-0.447085	-2.07876
H	6.6416	-1.89436	-1.95675
H	5.99056	-0.332394	-2.5681
N	7.199	-2.29762	0.787964
C	8.05721	-2.96077	1.74185
H	6.56905	-2.85572	0.258097
H	7.87486	-4.05803	1.73856
H	7.87032	-2.57754	2.77116
H	9.1292	-2.78255	1.49646
