44
  This energy is -3.956 and Call times are: 5528
C	2.0879	-1.90181	-2.03383
C	0.780584	-1.63977	-1.39087
O	-0.219903	-2.26574	-1.71273
H	1.96616	-2.69421	-2.804
H	2.82426	-2.24591	-1.27745
H	2.46513	-0.979439	-2.52376
N	0.760334	-0.689934	-0.452905
C	-0.44541	-0.293066	0.230642
C	-0.300104	1.1603	0.640725
O	0.776886	1.7423	0.526331
H	1.5743	-0.160787	-0.230782
H	-1.2811	-0.352639	-0.455438
C	-0.696226	-1.18238	1.46816
H	0.156103	-1.11344	2.17725
H	-1.62924	-0.895653	1.99522
H	-0.791378	-2.24213	1.14532
N	-1.39167	1.78588	1.12359
C	-1.35002	3.17008	1.534
H	-2.25529	1.29943	1.20484
H	-2.34624	3.50148	1.90136
H	-1.05567	3.8239	0.681275
H	-0.608227	3.31524	2.35242
C	4.32266	-3.26567	0.918653
C	4.4459	-1.82153	1.21938
O	3.9839	-1.34749	2.2481
H	3.76071	-3.76475	1.73779
H	5.32929	-3.72748	0.840113
H	3.77343	-3.4124	-0.0352274
N	5.08129	-1.07819	0.310474
C	5.24205	0.348435	0.442593
C	5.32519	0.945962	-0.949392
O	5.41957	0.223926	-1.94008
H	5.41592	-1.47133	-0.541184
H	4.36359	0.764197	0.920149
C	6.51145	0.687758	1.25421
H	7.41411	0.270453	0.759142
H	6.63888	1.78309	1.37475
H	6.43225	0.233896	2.26618
N	5.28326	2.2886	-1.05702
C	5.35056	2.94644	-2.34111
H	5.20255	2.85594	-0.244196
H	5.30077	4.05104	-2.22018
H	4.50416	2.62655	-2.99116
H	6.30161	2.69319	-2.86313
