44
  This energy is -0.7251 and Call times are: 5782
C	0.621395	-2.73061	2.06647
C	1.00441	-1.42704	1.47898
O	1.95899	-0.794707	1.9095
H	1.30814	-2.9706	2.90711
H	0.696017	-3.53186	1.30151
H	-0.418374	-2.68516	2.45365
N	0.253107	-0.98891	0.466084
C	0.475853	0.281022	-0.179065
C	-0.85239	0.776535	-0.719242
O	-1.84403	0.0496558	-0.716419
H	-0.545423	-1.49547	0.153649
H	0.813817	1.00075	0.556058
C	1.50817	0.146701	-1.31991
H	1.15706	-0.58372	-2.07967
H	1.69867	1.12066	-1.81553
H	2.46969	-0.224738	-0.902949
N	-0.904242	2.03788	-1.19078
C	-2.12629	2.59758	-1.71948
H	-0.0923455	2.61216	-1.18093
H	-1.96543	3.64533	-2.05646
H	-2.92602	2.59778	-0.943788
H	-2.4881	2.00129	-2.5882
C	9.91033	-1.76945	0.46714
C	9.01483	-0.920109	-0.350082
O	9.40693	-0.399617	-1.38534
H	10.9145	-1.80814	-0.00819126
H	9.50421	-2.80067	0.533594
H	10.0123	-1.34602	1.4886
N	7.77105	-0.757402	0.107001
C	6.79822	0.0750493	-0.555702
C	5.83515	0.602216	0.491281
O	5.86217	0.174921	1.64384
H	7.47887	-1.15414	0.9725
H	7.29848	0.929919	-0.993373
C	6.03779	-0.720657	-1.63914
H	5.51575	-1.59179	-1.18899
H	5.29539	-0.0869251	-2.16615
H	6.76295	-1.10351	-2.39007
N	4.96138	1.55599	0.113333
C	4.01085	2.12132	1.04234
H	4.95749	1.89197	-0.822711
H	3.3811	2.88958	0.541917
H	4.53694	2.60274	1.89834
H	3.34108	1.32979	1.44982
