44
  This energy is -2.7141 and Call times are: 5754
C	0.0754612	-1.02621	-3.32474
C	-0.178426	-0.00822805	-2.28052
O	-0.37717	1.16279	-2.57314
H	0.0656538	-0.538186	-4.32354
H	-0.713824	-1.80665	-3.29832
H	1.06766	-1.49869	-3.16537
N	-0.174891	-0.440206	-1.01729
C	-0.364012	0.439345	0.109294
C	0.36657	-0.15297	1.29966
O	0.842926	-1.28521	1.24655
H	0.0289984	-1.38876	-0.792477
H	0.09242	1.39764	-0.105101
C	-1.86527	0.613556	0.427275
H	-2.33167	-0.368001	0.657612
H	-2.02463	1.29966	1.28424
H	-2.38123	1.04074	-0.460221
N	0.479404	0.608126	2.40602
C	1.16246	0.130505	3.58564
H	0.0909535	1.52337	2.42849
H	1.14877	0.901508	4.38725
H	2.22415	-0.114121	3.35275
H	0.673662	-0.791013	3.97682
C	9.29025	1.39846	1.44569
C	8.06522	1.49623	0.620536
O	7.62448	2.58151	0.267908
H	9.66757	2.42079	1.66552
H	10.0757	0.835243	0.89931
H	9.06606	0.884361	2.40408
N	7.47781	0.343401	0.291414
C	6.25575	0.279379	-0.470837
C	5.51769	-0.985869	-0.0758873
O	6.0537	-1.83056	0.638877
H	7.82544	-0.530013	0.620289
H	5.62422	1.11771	-0.204404
C	6.55031	0.283562	-1.9869
H	7.18949	-0.58221	-2.26247
H	5.6166	0.248549	-2.5848
H	7.09765	1.21446	-2.25185
N	4.25816	-1.14226	-0.528812
C	3.47638	-2.31141	-0.200087
H	3.84005	-0.445878	-1.10268
H	2.46804	-2.25403	-0.66612
H	3.34806	-2.40069	0.90302
H	3.97945	-3.236	-0.565068
