44
  This energy is -2.7378 and Call times are: 5376
C	0.39829	-1.55282	-3.08914
C	0.317115	-1.59208	-1.61164
O	0.227325	-2.65374	-1.01062
H	0.345374	-2.58933	-3.48756
H	1.35783	-1.09394	-3.40764
H	-0.447826	-0.964968	-3.5034
N	0.34516	-0.413964	-0.984245
C	0.231795	-0.288856	0.447557
C	-0.39587	1.05731	0.75649
O	-0.56214	1.89296	-0.129938
H	0.377274	0.443747	-1.48939
H	-0.440432	-1.05144	0.820665
C	1.61542	-0.408984	1.12311
H	2.30222	0.379671	0.748453
H	1.53978	-0.328143	2.22686
H	2.05936	-1.39827	0.876967
N	-0.768913	1.29595	2.02925
C	-1.37943	2.54645	2.41618
H	-0.629959	0.605863	2.73177
H	-1.61387	2.54978	3.50349
H	-2.32634	2.71208	1.85298
H	-0.696475	3.40015	2.20193
C	8.03244	-1.50407	2.3916
C	7.51793	-1.38222	1.00899
O	8.04695	-1.97956	0.0817767
H	8.92166	-2.17125	2.39511
H	7.25387	-1.93945	3.05267
H	8.33001	-0.506648	2.77846
N	6.45733	-0.589543	0.838168
C	5.87067	-0.337872	-0.454521
C	5.23294	1.03835	-0.424676
O	5.12956	1.66182	0.629981
H	6.06295	-0.0777964	1.59608
H	6.6526	-0.314877	-1.20331
C	4.81931	-1.41442	-0.802271
H	4.0114	-1.43124	-0.040007
H	4.37024	-1.2395	-1.8014
H	5.30642	-2.41392	-0.810614
N	4.79535	1.55016	-1.59197
C	4.18002	2.85502	-1.66181
H	4.89148	1.03232	-2.43558
H	3.88853	3.0969	-2.70764
H	4.88383	3.64086	-1.30349
H	3.26656	2.89342	-1.02521
