44
  This energy is 1.2303 and Call times are: 5698
C	-1.17496	1.35024	-2.9848
C	-1.39386	0.698519	-1.67389
O	-2.51525	0.600754	-1.19499
H	-2.14861	1.70905	-3.38373
H	-0.73687	0.626333	-3.70367
H	-0.491354	2.21794	-2.87138
N	-0.307136	0.232603	-1.05395
C	-0.355641	-0.387456	0.246721
C	0.975767	-0.149662	0.934005
O	1.92401	0.335066	0.319521
H	0.603645	0.356119	-1.43747
H	-1.11819	0.0958834	0.844668
C	-0.64018	-1.90065	0.126248
H	0.147525	-2.39876	-0.478272
H	-0.693713	-2.38702	1.12179
H	-1.61521	-2.05105	-0.386624
N	1.07482	-0.480167	2.23669
C	2.30072	-0.284696	2.97502
H	0.295345	-0.867385	2.71789
H	2.18178	-0.6171	4.02981
H	2.59069	0.79103	2.97715
H	3.13302	-0.865692	2.51582
C	8.02905	3.01904	-1.11949
C	7.90851	1.57366	-0.823649
O	6.81991	1.01568	-0.826072
H	7.01762	3.44161	-1.30472
H	8.6543	3.17371	-2.02386
H	8.48771	3.54898	-0.258178
N	9.04475	0.92603	-0.555451
C	9.08295	-0.472473	-0.20719
C	10.2913	-0.706149	0.679925
O	11.1281	0.178371	0.850031
H	9.91846	1.40249	-0.517085
H	8.20341	-0.720038	0.373958
C	9.16171	-1.35421	-1.47273
H	10.0694	-1.10791	-2.06386
H	9.17773	-2.43382	-1.21835
H	8.27177	-1.16089	-2.11067
N	10.4058	-1.90915	1.27632
C	11.5191	-2.2206	2.14223
H	9.71633	-2.61074	1.12977
H	11.4333	-3.25751	2.53555
H	11.552	-1.51926	3.00728
H	12.4828	-2.13341	1.59019
