44
  This energy is -2.5528 and Call times are: 5639
C	-0.173475	-2.47558	-2.4401
C	-0.331401	-1.07346	-1.99262
O	-0.520367	-0.170208	-2.79565
H	-0.238311	-2.5167	-3.54914
H	-0.97824	-3.10771	-2.00938
H	0.815216	-2.8694	-2.12309
N	-0.253669	-0.85794	-0.67737
C	-0.344881	0.457734	-0.0949257
C	0.449175	0.458808	1.19776
O	0.892769	-0.588276	1.66525
H	-0.0586311	-1.59766	-0.0396806
H	0.119649	1.17556	-0.759431
C	-1.81662	0.841489	0.173326
H	-2.29059	0.111246	0.863347
H	-1.90104	1.85813	0.609036
H	-2.38033	0.826451	-0.78498
N	0.654858	1.64451	1.80425
C	1.40362	1.74401	3.03536
H	0.291525	2.48145	1.40852
H	1.46288	2.80145	3.37524
H	2.4409	1.36197	2.89618
H	0.919597	1.14368	3.83939
C	7.83439	-2.91066	0.525185
C	6.65282	-2.19238	-0.00313273
O	5.8623	-2.74284	-0.757114
H	7.85128	-3.94296	0.112952
H	7.78437	-2.96682	1.63293
H	8.76647	-2.38793	0.223468
N	6.50627	-0.923876	0.386503
C	5.4304	-0.083786	-0.0775189
C	5.91143	1.35489	-0.0577301
O	6.98467	1.65299	0.462847
H	7.18022	-0.477143	0.967942
H	5.2007	-0.332984	-1.10599
C	4.17876	-0.248515	0.812148
H	4.41118	0.0171381	1.86545
H	3.33876	0.382898	0.456848
H	3.84915	-1.31019	0.788944
N	5.12616	2.28476	-0.636261
C	5.50442	3.67829	-0.670594
H	4.26319	2.0236	-1.05595
H	4.72871	4.28368	-1.18925
H	6.47034	3.80992	-1.21
H	5.62853	4.07744	0.362081
