44
  This energy is -2.7499 and Call times are: 5726
C	-2.19134	2.51433	0.994426
C	-1.73293	1.10687	1.00223
O	-2.1937	0.295457	1.79325
H	-2.95055	2.65777	1.79374
H	-2.65031	2.7619	0.014225
H	-1.33599	3.19644	1.18467
N	-0.797115	0.782559	0.106995
C	-0.22157	-0.536561	0.0219744
C	1.18903	-0.403096	-0.52021
O	1.59705	0.67164	-0.956297
H	-0.402378	1.4638	-0.502891
H	-0.146316	-0.958255	1.01653
C	-1.06839	-1.45016	-0.890977
H	-1.13712	-1.0233	-1.91426
H	-0.643137	-2.47279	-0.953533
H	-2.09849	-1.52697	-0.479467
N	1.97392	-1.49828	-0.497326
C	3.33232	-1.46508	-0.987056
H	1.62729	-2.35791	-0.136818
H	3.81248	-2.46297	-0.882681
H	3.93745	-0.723601	-0.416714
H	3.35543	-1.17541	-2.06255
C	9.97084	-1.02806	-2.60144
C	9.6725	-0.164762	-1.43659
O	10.5356	0.542418	-0.935249
H	11.0423	-0.916839	-2.87618
H	9.34468	-0.730461	-3.46868
H	9.77276	-2.09145	-2.35035
N	8.42165	-0.206575	-0.971827
C	7.99158	0.544232	0.181379
C	6.85275	-0.21138	0.839937
O	6.3424	-1.18564	0.290345
H	7.74082	-0.817955	-1.36496
H	8.8022	0.594384	0.897622
C	7.53728	1.96395	-0.222654
H	6.69867	1.9131	-0.949424
H	7.21678	2.55679	0.658452
H	8.38385	2.49551	-0.709587
N	6.43155	0.218815	2.04556
C	5.35739	-0.440945	2.7506
H	6.85967	1.00646	2.47614
H	5.15873	0.0608892	3.72319
H	5.61553	-1.50588	2.95201
H	4.42078	-0.420832	2.14769
