44
  This energy is -0.6841 and Call times are: 5571
C	1.72272	-0.545528	-2.97444
C	1.1642	0.351134	-1.93753
O	1.45065	1.54003	-1.9077
H	2.4017	0.0356331	-3.63559
H	0.904499	-0.976229	-3.58905
H	2.29975	-1.36692	-2.49964
N	0.341994	-0.210077	-1.04792
C	-0.245339	0.52468	0.0446553
C	-0.492457	-0.442951	1.18666
O	-0.353738	-1.65415	1.02706
H	0.150661	-1.18737	-1.06065
H	0.460907	1.26604	0.397127
C	-1.56561	1.19796	-0.389876
H	-2.29427	0.436824	-0.741656
H	-2.02055	1.77829	0.438843
H	-1.36218	1.89552	-1.23153
N	-0.858873	0.0739773	2.37601
C	-1.11023	-0.769157	3.52149
H	-0.96195	1.05692	2.48678
H	-1.39914	-0.157302	4.40432
H	-0.200455	-1.35606	3.78441
H	-1.93453	-1.48742	3.30753
C	5.5618	-1.64744	-3.05215
C	5.83804	-1.63681	-1.59794
O	5.9386	-2.67883	-0.965088
H	5.45806	-2.69866	-3.39861
H	6.3975	-1.16799	-3.60395
H	4.6176	-1.10366	-3.26629
N	5.96657	-0.436828	-1.02705
C	6.19385	-0.264739	0.386203
C	5.60316	1.06958	0.801232
O	5.19529	1.86704	-0.0410262
H	5.84143	0.402951	-1.5476
H	5.6625	-1.03585	0.929968
C	7.70265	-0.313892	0.712341
H	8.24668	0.483699	0.162868
H	7.88989	-0.196418	1.79938
H	8.11536	-1.29573	0.392962
N	5.53579	1.34062	2.11957
C	4.98435	2.58273	2.60868
H	5.86716	0.681071	2.7861
H	5.01682	2.61684	3.72
H	3.9242	2.69611	2.28541
H	5.56032	3.45088	2.21407
