44
  This energy is 1.11298e-319 and Call times are: 13897
C	-2.07253	-2.43314	1.37736
C	-1.86035	-1.16414	0.645399
O	-2.78356	-0.601558	0.0730336
H	-3.13776	-2.73725	1.28411
H	-1.82961	-2.30001	2.45253
H	-1.43173	-3.2331	0.950124
N	-0.616418	-0.679369	0.646318
C	-0.246348	0.522889	-0.0580861
C	1.21454	0.410004	-0.451311
O	1.91251	-0.50781	-0.0245049
H	0.132728	-1.16996	1.08217
H	-0.822083	0.592684	-0.972575
C	-0.475191	1.77085	0.822521
H	0.123369	1.70464	1.756
H	-0.206979	2.70419	0.286376
H	-1.54909	1.82888	1.10485
N	1.711	1.34325	-1.28714
C	3.08851	1.31383	-1.72049
H	1.12961	2.07592	-1.62513
H	3.30388	2.16423	-2.40435
H	3.31017	0.364936	-2.26062
H	3.77683	1.38288	-0.847227
C	3.33248	0.908044	0.531266
C	4.50365	0.0405689	0.790089
O	4.50565	-0.76123	1.71395
H	2.5488	0.703966	1.29288
H	2.91688	0.699175	-0.476903
H	3.62635	1.97696	0.595539
N	5.54399	0.186657	-0.0337674
C	6.77041	-0.555967	0.117802
C	7.90379	0.283475	-0.441071
O	7.67335	1.31891	-1.06274
H	5.54324	0.872327	-0.756064
H	6.96932	-0.705882	1.17164
C	6.68832	-1.91237	-0.616149
H	6.49474	-1.75875	-1.69919
H	7.62162	-2.49962	-0.495322
H	5.84738	-2.50647	-0.196396
N	9.1636	-0.142668	-0.223601
C	10.3057	0.593766	-0.712879
H	9.33015	-0.980811	0.285175
H	11.2529	0.0825301	-0.432294
H	10.3226	1.62231	-0.284976
H	10.2703	0.682185	-1.82286
