44
  This energy is -0.0367 and Call times are: 15724
C	2.04453	2.75289	0.595145
C	1.72232	1.31475	0.733293
O	2.54353	0.521396	1.17216
H	3.09165	2.928	0.924909
H	1.36255	3.36025	1.22662
H	1.94432	3.06738	-0.465114
N	0.498307	0.941594	0.352604
C	0.0536832	-0.429408	0.387557
C	-0.992624	-0.615063	-0.695184
O	-1.44253	0.350943	-1.30848
H	-0.14498	1.59211	-0.0409351
H	0.884929	-1.08075	0.147931
C	-0.531016	-0.78463	1.77218
H	-1.39049	-0.123637	2.01391
H	-0.864243	-1.84177	1.81617
H	0.249361	-0.633842	2.54976
N	-1.40008	-1.87155	-0.962097
C	-2.38803	-2.14577	-1.97942
H	-1.02143	-2.64072	-0.458039
H	-2.58887	-3.23762	-2.04841
H	-2.03572	-1.79065	-2.97493
H	-3.34606	-1.62683	-1.74698
C	8.5262	-1.97456	-2.78507
C	8.95798	-1.09793	-1.67321
O	10.14	-0.983147	-1.38002
H	9.41724	-2.46647	-3.23222
H	8.01534	-1.37586	-3.56821
H	7.83454	-2.75749	-2.40864
N	7.99136	-0.451126	-1.01771
C	8.25201	0.403674	0.113629
C	7.02704	0.390507	1.00853
O	5.98195	-0.140596	0.637821
H	7.03045	-0.586481	-1.24172
H	9.07498	-0.00404426	0.687304
C	8.57221	1.8433	-0.344828
H	7.72395	2.26585	-0.924437
H	8.78837	2.50802	0.516534
H	9.46701	1.82785	-1.0047
N	7.13131	0.971856	2.2198
C	6.01967	1.00308	3.14147
H	7.98649	1.39283	2.50358
H	6.30338	1.52421	4.0823
H	5.69317	-0.0307266	3.39823
H	5.1516	1.53773	2.69232
