44
  This energy is -3.7555 and Call times are: 10414
C	-1.31411	2.9842	-1.2167
C	-0.944835	2.08067	-0.103859
O	-0.946632	2.47086	1.05552
H	-1.54867	3.99167	-0.809427
H	-2.20837	2.5935	-1.74622
H	-0.470347	3.0737	-1.93304
N	-0.612092	0.831881	-0.438812
C	-0.188743	-0.149634	0.52864
C	0.741638	-1.12678	-0.164996
O	0.886628	-1.10003	-1.38564
H	-0.575829	0.540706	-1.39053
H	0.381023	0.340083	1.3085
C	-1.40282	-0.891431	1.12947
H	-1.98173	-1.40275	0.331061
H	-1.09081	-1.64031	1.88601
H	-2.0738	-0.156097	1.62487
N	1.40428	-2.01278	0.604377
C	2.31511	-2.97729	0.0331642
H	1.27699	-2.01629	1.59071
H	2.7608	-3.61575	0.827497
H	3.14204	-2.46366	-0.508725
H	1.78522	-3.63728	-0.691249
C	7.95868	-0.563991	-2.78565
C	7.41839	0.316241	-1.72526
O	7.89377	1.42439	-1.51928
H	8.81224	-0.0561252	-3.28503
H	7.17469	-0.777136	-3.54241
H	8.31629	-1.51857	-2.34523
N	6.3962	-0.16779	-1.01587
C	5.79268	0.553953	0.0765653
C	5.22748	-0.456983	1.05643
O	5.18143	-1.65221	0.7718
H	6.04681	-1.08789	-1.16817
H	6.55673	1.11661	0.598364
C	4.67937	1.49556	-0.4325
H	3.89002	0.917565	-0.958718
H	4.21625	2.06724	0.397696
H	5.11407	2.22147	-1.15391
N	4.78916	0.00199451	2.24522
C	4.24029	-0.886673	3.2428
H	4.83844	0.972043	2.45888
H	3.93683	-0.31965	4.15035
H	4.99191	-1.65234	3.54297
H	3.34541	-1.41843	2.84584
