44
  This energy is -2.6846 and Call times are: 4821
C	2.87354	1.81948	-0.73821
C	2.16113	0.749786	-0.00379375
O	2.77211	-0.0834865	0.651011
H	3.969	1.69763	-0.593335
H	2.56885	2.81567	-0.35414
H	2.6453	1.75619	-1.8231
N	0.829583	0.748947	-0.100544
C	0.0020012	-0.253745	0.522574
C	-1.26125	-0.404746	-0.303834
O	-1.51356	0.37849	-1.2174
H	0.349039	1.40927	-0.670562
H	0.517232	-1.20596	0.501132
C	-0.344919	0.141725	1.97464
H	-0.882826	1.11344	1.99636
H	-0.970412	-0.629021	2.46985
H	0.594491	0.254459	2.55872
N	-2.0853	-1.4283	-0.00501531
C	-3.30757	-1.65424	-0.740679
H	-1.86205	-2.05401	0.735071
H	-3.84609	-2.54342	-0.344979
H	-3.09031	-1.82754	-1.81958
H	-3.98262	-0.77149	-0.661916
C	4.63969	-0.776883	-2.98599
C	5.28153	-1.16914	-1.7111
O	5.20309	-2.31464	-1.28909
H	4.11177	-1.65522	-3.4169
H	5.40662	-0.428189	-3.70915
H	3.9024	0.0344821	-2.80946
N	5.94008	-0.208777	-1.05811
C	6.57901	-0.42745	0.215664
C	6.58699	0.887238	0.972701
O	6.25131	1.93359	0.421187
H	5.96048	0.728629	-1.39383
H	5.99139	-1.12928	0.794251
C	8.01914	-0.952704	0.0275478
H	8.62535	-0.228203	-0.556962
H	8.51703	-1.13819	1.00132
H	7.98963	-1.91104	-0.535526
N	6.96538	0.861853	2.26583
C	6.99879	2.06294	3.06736
H	7.22958	0.00484308	2.69572
H	7.33562	1.83553	4.10276
H	5.9874	2.52706	3.12183
H	7.69818	2.81	2.62703
