44
  This energy is -1.8068 and Call times are: 6923
C	2.13912	-0.641969	2.66922
C	1.09112	-1.05746	1.70995
O	0.76583	-2.23127	1.59697
H	2.53477	-1.53949	3.19247
H	1.71433	0.0548145	3.42206
H	2.97292	-0.142287	2.13238
N	0.532223	-0.086261	0.984143
C	-0.470307	-0.340401	-0.0203001
C	-0.367512	0.744085	-1.07618
O	0.354212	1.72446	-0.903853
H	0.836404	0.85918	1.05819
H	-0.258011	-1.28467	-0.506018
C	-1.88344	-0.357457	0.602598
H	-2.1058	0.614743	1.0919
H	-2.6631	-0.565969	-0.15844
H	-1.93323	-1.15304	1.37779
N	-1.08625	0.587559	-2.20531
C	-1.04728	1.56522	-3.26778
H	-1.6613	-0.214487	-2.32821
H	-1.70487	1.25688	-4.11024
H	-0.00985993	1.68096	-3.6572
H	-1.39091	2.55915	-2.90013
C	5.3192	-2.62612	0.119058
C	5.67898	-1.20287	0.308993
O	4.82184	-0.356007	0.520018
H	4.21505	-2.73771	0.184409
H	5.79067	-3.24865	0.908307
H	5.65734	-2.97641	-0.878956
N	6.97805	-0.904108	0.23453
C	7.47773	0.442822	0.355574
C	8.76563	0.542801	-0.43998
O	9.29614	-0.462576	-0.908465
H	7.65999	-1.59795	0.0214641
H	6.76855	1.12843	-0.091219
C	7.72569	0.808356	1.83549
H	8.46114	0.111724	2.2914
H	8.09751	1.84793	1.94298
H	6.77176	0.72061	2.39998
N	9.29656	1.76842	-0.618811
C	10.517	1.96172	-1.3667
H	8.85054	2.57045	-0.235548
H	10.7902	3.03937	-1.40178
H	10.399	1.59588	-2.41241
H	11.3582	1.40159	-0.897874
