44
  This energy is 0 and Call times are: 18555
C	2.40179	1.14174	-2.24511
C	1.54696	0.0716498	-1.68358
O	1.43034	-1.00716	-2.24836
H	2.84938	0.790986	-3.20036
H	3.21866	1.3909	-1.53561
H	1.79571	2.05057	-2.4446
N	0.918038	0.353191	-0.540095
C	0.0188369	-0.571117	0.104617
C	-1.00517	0.231531	0.884828
O	-0.878495	1.44634	1.02593
H	0.990605	1.25031	-0.113745
H	-0.51809	-1.1323	-0.649976
C	0.788601	-1.52542	1.04377
H	1.3311	-0.950772	1.82449
H	0.108918	-2.2511	1.53564
H	1.53766	-2.09657	0.452978
N	-2.05541	-0.432965	1.40584
C	-3.0827	0.248121	2.15883
H	-2.14272	-1.41531	1.27756
H	-3.85969	-0.469793	2.5025
H	-3.57691	1.02676	1.53372
H	-2.64736	0.748904	3.05373
C	147.235	2.70671	0.104159
C	146.041	2.01599	-0.431963
O	145.238	2.60146	-1.14558
H	147.23	3.76577	-0.233779
H	148.16	2.21604	-0.266574
H	147.225	2.68367	1.21431
N	145.894	0.733376	-0.0916286
C	144.761	-0.0585182	-0.500631
C	144.526	-1.12657	0.550874
O	145.339	-1.30988	1.45492
H	146.535	0.281994	0.523386
H	143.878	0.568015	-0.526849
C	145.009	-0.703653	-1.88187
H	145.908	-1.35482	-1.85271
H	144.138	-1.30484	-2.21415
H	145.186	0.0959244	-2.63391
N	143.396	-1.85505	0.460599
C	143.085	-2.8897	1.41922
H	142.748	-1.68926	-0.275695
H	142.114	-3.3735	1.17452
H	143.016	-2.46507	2.44693
H	143.877	-3.67365	1.4221
