44
  This energy is 0 and Call times are: 17967
C	1.31077	3.19543	-0.428726
C	0.422444	2.0852	-0.840327
O	-0.433214	2.24456	-1.6999
H	1.04254	4.1112	-0.999078
H	2.36956	2.93716	-0.640872
H	1.19055	3.39965	0.65614
N	0.608342	0.916267	-0.222743
C	-0.206447	-0.24382	-0.485186
C	-0.239917	-1.09249	0.771869
O	0.492172	-0.834725	1.72545
H	1.28157	0.813133	0.503886
H	-1.2222	0.071652	-0.688539
C	0.35624	-1.05613	-1.6721
H	1.39455	-1.38899	-1.45962
H	-0.270263	-1.94452	-1.89296
H	0.379003	-0.413102	-2.57893
N	-1.10306	-2.12685	0.805183
C	-1.20876	-2.98622	1.96125
H	-1.69022	-2.31712	0.0253607
H	-1.97309	-3.777	1.79487
H	-1.50211	-2.39915	2.86156
H	-0.233264	-3.48042	2.17414
C	107.169	1.19136	3.26935
C	107.429	1.34587	1.82026
O	107.734	2.43049	1.34398
H	107.282	2.17754	3.7699
H	107.894	0.477548	3.71405
H	106.136	0.820208	3.43553
N	107.309	0.244617	1.07512
C	107.488	0.24633	-0.355403
C	106.637	-0.86553	-0.940042
O	106.082	-1.68389	-0.209697
H	107.02	-0.622322	1.47096
H	107.12	1.18083	-0.760409
C	108.974	0.0431785	-0.725432
H	109.348	-0.920346	-0.319133
H	109.127	0.0564461	-1.82402
H	109.578	0.863575	-0.280612
N	106.509	-0.915384	-2.28055
C	105.715	-1.93458	-2.92632
H	106.962	-0.241917	-2.85466
H	105.733	-1.80614	-4.03104
H	104.655	-1.8824	-2.58486
H	106.106	-2.94938	-2.68462
