44
  This energy is -2.7573 and Call times are: 13785
C	-1.80844	1.88693	2.2982
C	-0.655969	1.03289	1.93275
O	0.30066	0.905064	2.68437
H	-1.62159	2.35081	3.29106
H	-2.7342	1.27662	2.35518
H	-1.94234	2.69181	1.54498
N	-0.722777	0.421122	0.74799
C	0.340114	-0.407549	0.236008
C	0.297628	-0.348693	-1.27934
O	-0.640751	0.190736	-1.86259
H	-1.48955	0.567448	0.129508
H	1.29329	0.000732618	0.548078
C	0.18853	-1.86439	0.72577
H	-0.784658	-2.28721	0.396887
H	1.00876	-2.50953	0.349546
H	0.214423	-1.8825	1.83723
N	1.32515	-0.899145	-1.95552
C	1.37366	-0.885944	-3.39901
H	2.0774	-1.32745	-1.46588
H	2.29659	-1.38664	-3.76607
H	1.36611	0.159995	-3.78272
H	0.492649	-1.41696	-3.82676
C	0.942765	-0.580291	3.03197
C	1.60091	0.318145	2.05687
O	1.55265	1.53389	2.18353
H	0.434015	0.030625	3.80902
H	1.69703	-1.23055	3.52287
H	0.186941	-1.2126	2.52012
N	2.23947	-0.271633	1.04356
C	2.89048	0.470634	-0.00704703
C	2.87063	-0.375428	-1.26616
O	2.5066	-1.54927	-1.23047
H	2.23524	-1.26122	0.931526
H	2.32327	1.36966	-0.21355
C	4.3419	0.824093	0.384978
H	4.92712	-0.0983388	0.586694
H	4.84947	1.40774	-0.410167
H	4.33263	1.43645	1.31302
N	3.25658	0.208258	-2.41784
C	3.26515	-0.516882	-3.66694
H	3.54389	1.16033	-2.42742
H	3.61307	0.135457	-4.49799
H	2.24309	-0.884793	-3.91456
H	3.94376	-1.39825	-3.60513
