44
  This energy is -0.1215 and Call times are: 12997
C	1.95496	-2.82386	-0.562699
C	1.22585	-1.90171	0.336845
O	1.02548	-2.18769	1.50923
H	2.23207	-3.7423	-0.000957603
H	2.8806	-2.33954	-0.938681
H	1.31174	-3.10852	-1.42196
N	0.80422	-0.755802	-0.203059
C	0.0441985	0.222063	0.534985
C	-0.836816	0.974087	-0.444723
O	-0.702775	0.821797	-1.65739
H	0.939195	-0.555314	-1.16921
H	-0.609845	-0.286103	1.23257
C	0.979157	1.19828	1.28204
H	1.64311	1.72761	0.565787
H	0.405819	1.9477	1.86528
H	1.61989	0.625409	1.98747
N	-1.77057	1.80269	0.0627611
C	-2.65805	2.55574	-0.792503
H	-1.86657	1.90959	1.04685
H	-3.35333	3.17813	-0.187159
H	-3.26433	1.87143	-1.42923
H	-2.07858	3.22953	-1.46433
C	2.30754	2.18901	1.65253
C	2.87753	0.840662	1.43294
O	2.66564	-0.0719288	2.21951
H	1.72404	2.19145	2.59877
H	1.63289	2.46058	0.813574
H	3.12137	2.94048	1.73026
N	3.62851	0.684572	0.340212
C	4.28536	-0.556908	0.0149167
C	5.53329	-0.236074	-0.785915
O	5.7457	0.905299	-1.1907
H	3.82551	1.44748	-0.268904
H	4.60448	-1.04235	0.928772
C	3.34781	-1.48244	-0.791076
H	3.02856	-0.989017	-1.73376
H	3.83736	-2.44733	-1.03575
H	2.43801	-1.69744	-0.18911
N	6.3973	-1.24175	-1.02694
C	7.61412	-1.02977	-1.77568
H	6.21012	-2.15768	-0.68767
H	8.19012	-1.97699	-1.86639
H	8.25914	-0.274295	-1.27122
H	7.38519	-0.65883	-2.80093
