44
  This energy is 0 and Call times are: 18331
C	-0.845257	0.301321	3.36265
C	0.0642516	-0.141999	2.28219
O	1.1946	-0.539022	2.52938
H	-0.321622	0.220118	4.33994
H	-1.75196	-0.33904	3.38646
H	-1.14386	1.35869	3.20173
N	-0.417353	-0.0805403	1.03854
C	0.363572	-0.436974	-0.119763
C	-0.145408	0.369341	-1.29974
O	-1.17342	1.03772	-1.2093
H	-1.32491	0.283462	0.849575
H	1.3956	-0.152827	0.0439596
C	0.258208	-1.94984	-0.411934
H	-0.799164	-2.23994	-0.590381
H	0.866298	-2.23922	-1.29341
H	0.628518	-2.52018	0.4678
N	0.572678	0.331221	-2.43945
C	0.168692	1.07077	-3.61249
H	1.404	-0.212104	-2.49205
H	0.888253	0.910673	-4.44545
H	0.12414	2.1621	-3.39274
H	-0.840841	0.745819	-3.95365
C	133.299	-1.5833	-0.558713
C	132.495	-0.39918	-0.179673
O	133.019	0.589279	0.315047
H	134.365	-1.40081	-0.303037
H	133.217	-1.76738	-1.65061
H	132.945	-2.47882	-0.00569948
N	131.182	-0.476142	-0.405588
C	130.265	0.578536	-0.050413
C	128.912	-0.0461002	0.231683
O	128.701	-1.2318	-0.0163915
H	130.764	-1.30323	-0.771088
H	130.6	1.04961	0.86527
C	130.155	1.61941	-1.18606
H	129.801	1.13859	-2.12292
H	129.463	2.44398	-0.919024
H	131.158	2.05759	-1.38083
N	127.959	0.741592	0.768643
C	126.643	0.233192	1.07627
H	128.15	1.69753	0.966123
H	126.004	1.03332	1.51077
H	126.706	-0.602255	1.81064
H	126.146	-0.152285	0.156853
