44
  This energy is -2.2481 and Call times are: 12493
C	3.25386	-0.0196728	1.23479
C	2.27996	0.132114	0.130428
O	2.62043	0.576717	-0.957145
H	4.25037	0.3398	0.897713
H	3.33714	-1.08743	1.52755
H	2.93352	0.580189	2.11266
N	1.02425	-0.238656	0.391399
C	-0.0435089	-0.109995	-0.568755
C	-1.34339	0.0746864	0.191351
O	-1.385	-0.0680566	1.41185
H	0.75384	-0.560341	1.29432
H	0.113855	0.783174	-1.16046
C	-0.120487	-1.35569	-1.47846
H	-0.292449	-2.27094	-0.872841
H	-0.929997	-1.26273	-2.23117
H	0.843928	-1.47579	-2.01867
N	-2.44032	0.407143	-0.517339
C	-3.72017	0.608957	0.12097
H	-2.38595	0.522211	-1.50368
H	-4.49624	0.876185	-0.629718
H	-3.65994	1.43096	0.870611
H	-4.04644	-0.316338	0.648715
C	7.16012	0.845999	-3.15931
C	8.21776	0.839738	-2.12369
O	9.36244	1.18234	-2.38587
H	7.59574	1.1767	-4.12715
H	6.34796	1.54668	-2.87264
H	6.74066	-0.174572	-3.28406
N	7.85126	0.440535	-0.903563
C	8.77784	0.34036	0.196427
C	8.27976	-0.740329	1.13749
O	7.16842	-1.24404	0.986112
H	6.92532	0.12567	-0.715542
H	9.74319	0.0226727	-0.177469
C	8.90156	1.68936	0.938144
H	7.91337	2.01054	1.33103
H	9.62271	1.62892	1.77887
H	9.25979	2.46683	0.228533
N	9.10045	-1.12946	2.133
C	8.71416	-2.15507	3.07379
H	9.9976	-0.713036	2.23685
H	9.52363	-2.33339	3.81553
H	8.50511	-3.11368	2.54593
H	7.79307	-1.85634	3.6247
