44
  This energy is -2.2338 and Call times are: 11402
C	-0.88344	2.17796	-2.56685
C	0.115583	1.38085	-1.82004
O	1.24561	1.2122	-2.25708
H	-0.432401	2.53354	-3.51869
H	-1.19681	3.05804	-1.96684
H	-1.77238	1.55505	-2.80107
N	-0.287575	0.86261	-0.657605
C	0.557495	0.0290769	0.16071
C	-0.330226	-0.917211	0.946868
O	-1.55191	-0.7787	0.949402
H	-1.22306	0.974465	-0.334763
H	1.18838	-0.576339	-0.478109
C	1.41715	0.88489	1.11665
H	0.770252	1.49831	1.77942
H	2.08233	0.255294	1.74248
H	2.05268	1.57519	0.520048
N	0.267767	-1.913	1.63012
C	-0.496273	-2.86504	2.40216
H	1.25726	-2.0113	1.6126
H	0.175526	-3.60552	2.8896
H	-1.21099	-3.41671	1.74939
H	-1.0824	-2.34745	3.1957
C	2.63501	0.049507	3.20111
C	3.339	-0.637634	2.09504
O	3.87364	-1.7249	2.26365
H	2.70968	-0.567001	4.12317
H	1.5631	0.186258	2.94606
H	3.09848	1.04024	3.39274
N	3.35637	-0.00557025	0.91921
C	4.03846	-0.528369	-0.238372
C	4.47051	0.642079	-1.10148
O	4.08494	1.78308	-0.854166
H	2.952	0.897768	0.808211
H	4.9363	-1.04409	0.0786819
C	3.12054	-1.47998	-1.03657
H	2.20418	-0.948542	-1.37109
H	3.6389	-1.89998	-1.92281
H	2.81031	-2.32444	-0.383132
N	5.29401	0.38511	-2.13677
C	5.76193	1.4366	-3.00946
H	5.59848	-0.544056	-2.31849
H	6.42875	1.02491	-3.79884
H	6.33169	2.20102	-2.43301
H	4.90449	1.94651	-3.50537
