44
  This energy is -1.0724 and Call times are: 11557
C	1.25541	-2.86943	1.51757
C	0.637526	-1.52578	1.58058
O	0.176298	-1.08957	2.62624
H	1.19535	-3.34863	2.51889
H	2.32249	-2.78649	1.22228
H	0.716942	-3.50416	0.782542
N	0.612806	-0.829952	0.441462
C	0.00674221	0.473928	0.335889
C	-0.479567	0.655439	-1.08963
O	-0.184004	-0.156741	-1.96412
H	0.955389	-1.21491	-0.410775
H	-0.86189	0.517401	0.981039
C	1.01482	1.58275	0.709432
H	1.90134	1.54524	0.0410695
H	0.556056	2.5907	0.64543
H	1.36323	1.42542	1.75356
N	-1.24937	1.72903	-1.35576
C	-1.76271	1.98099	-2.6821
H	-1.48121	2.37286	-0.634084
H	-2.37315	2.9107	-2.69748
H	-2.40334	1.13542	-3.02251
H	-0.928248	2.0971	-3.41103
C	8.86558	-2.87653	-0.598285
C	7.90829	-1.83165	-1.02604
O	7.57914	-1.71647	-2.19856
H	9.19709	-3.45681	-1.48667
H	8.38049	-3.56816	0.122188
H	9.75359	-2.41005	-0.121931
N	7.43463	-1.03238	-0.0672941
C	6.52914	0.0569977	-0.335431
C	6.74715	1.12411	0.720653
O	7.46255	0.907238	1.6968
H	7.74333	-1.11231	0.876194
H	6.77381	0.497168	-1.29408
C	5.0629	-0.427958	-0.320576
H	4.80826	-0.870066	0.666208
H	4.35664	0.398969	-0.539457
H	4.92841	-1.21383	-1.09559
N	6.13738	2.31275	0.54369
C	6.29101	3.38995	1.49355
H	5.56568	2.47071	-0.254616
H	5.71264	4.28379	1.17142
H	7.36235	3.68093	1.58754
H	5.92757	3.08104	2.50034
