44
  This energy is -0.051 and Call times are: 14236
C	3.21623	0.134419	-1.32304
C	2.00387	0.784143	-0.776077
O	2.00196	1.97003	-0.475954
H	4.03997	0.879104	-1.37578
H	3.0155	-0.252347	-2.34425
H	3.53089	-0.703551	-0.66586
N	0.928404	0.00665146	-0.630287
C	-0.311219	0.485353	-0.0710559
C	-1.01421	-0.684484	0.591395
O	-0.597648	-1.83243	0.448537
H	0.957583	-0.966366	-0.840648
H	-0.0970285	1.21274	0.702033
C	-1.20689	1.10604	-1.16548
H	-1.4356	0.357176	-1.95347
H	-2.1586	1.49088	-0.745157
H	-0.669333	1.95478	-1.64195
N	-2.09979	-0.416987	1.34371
C	-2.83005	-1.4657	2.01685
H	-2.41924	0.518729	1.45076
H	-3.68922	-1.04485	2.58425
H	-2.16954	-2.00762	2.73191
H	-3.22328	-2.20492	1.28195
C	-0.354001	3.46013	0.14332
C	-0.624055	2.20697	-0.596829
O	-1.06772	2.22807	-1.73662
H	-0.632598	4.32905	-0.491676
H	0.724943	3.53065	0.395619
H	-0.954455	3.49012	1.07693
N	-0.359574	1.0682	0.0478719
C	-0.610821	-0.230398	-0.525773
C	-0.888849	-1.20167	0.606
O	-0.715171	-0.870315	1.77722
H	-0.0373672	1.06671	0.990229
H	-1.50309	-0.184085	-1.1376
C	0.59619	-0.706344	-1.36353
H	1.50955	-0.764135	-0.733866
H	0.409559	-1.69909	-1.82194
H	0.786301	0.0233145	-2.18072
N	-1.33833	-2.42955	0.279984
C	-1.63514	-3.41861	1.28985
H	-1.47654	-2.67777	-0.673094
H	-1.99223	-4.36277	0.822654
H	-2.42646	-3.04865	1.98139
H	-0.727832	-3.64761	1.89441
