44
  This energy is 6.87048e-320 and Call times are: 10913
C	-3.36786	-0.0394941	0.876718
C	-1.95787	-0.429662	1.10218
O	-1.60719	-0.959898	2.14731
H	-3.96721	-0.290773	1.77867
H	-3.78229	-0.58878	0.0053549
H	-3.43767	1.05323	0.691835
N	-1.10396	-0.168813	0.109627
C	0.306998	-0.451282	0.198925
C	1.04445	0.539963	-0.681501
O	0.429913	1.28658	-1.44086
H	-1.39674	0.30041	-0.718611
H	0.640099	-0.289019	1.21644
C	0.608951	-1.89927	-0.245369
H	0.276975	-2.06318	-1.29273
H	1.69047	-2.13345	-0.16796
H	0.0527816	-2.60699	0.407435
N	2.38867	0.575556	-0.592928
C	3.17464	1.49002	-1.38803
H	2.86783	-0.0335542	0.0303363
H	4.25885	1.36692	-1.17224
H	2.89118	2.54489	-1.16852
H	3.01025	1.30734	-2.47465
C	8.66373	3.39953	-0.565221
C	8.2485	1.98455	-0.693939
O	7.13164	1.68651	-1.09418
H	7.81925	4.0586	-0.86243
H	9.53077	3.60568	-1.22741
H	8.94088	3.62284	0.486633
N	9.15436	1.06651	-0.348947
C	8.88235	-0.348983	-0.379538
C	9.74802	-1.01976	0.670339
O	10.6291	-0.392244	1.25483
H	10.045	1.32524	0.0139018
H	7.84939	-0.520291	-0.10338
C	9.17375	-0.936672	-1.77773
H	10.236	-0.770483	-2.05706
H	8.95499	-2.02343	-1.81803
H	8.53511	-0.425699	-2.53098
N	9.50941	-2.31814	0.941056
C	10.279	-3.03818	1.92872
H	8.78942	-2.80791	0.460618
H	9.93163	-4.09201	2.00622
H	10.1771	-2.56104	2.93034
H	11.3595	-3.04399	1.65738
