44
  This energy is -0.1011 and Call times are: 14855
C	3.43363	-0.555298	-0.120433
C	2.21674	-0.0598547	0.561375
O	2.23954	0.264467	1.74066
H	4.27576	-0.582283	0.604805
H	3.70365	0.119529	-0.959742
H	3.26281	-1.58063	-0.51107
N	1.10778	0.00809877	-0.17887
C	-0.163213	0.429445	0.355546
C	-1.26037	-0.248265	-0.443519
O	-0.997582	-0.876467	-1.46725
H	1.09532	-0.298143	-1.12646
H	-0.251412	0.0873736	1.37919
C	-0.310352	1.96514	0.283145
H	-0.230478	2.31552	-0.767992
H	-1.27925	2.30323	0.704405
H	0.507321	2.44014	0.868064
N	-2.5235	-0.142597	0.014064
C	-3.63188	-0.759046	-0.677064
H	-2.71582	0.366442	0.846508
H	-4.58773	-0.558705	-0.144682
H	-3.49059	-1.86236	-0.740419
H	-3.71814	-0.361919	-1.71436
C	6.19078	2.45479	-0.609045
C	5.272	1.38835	-1.06697
O	5.03775	1.22212	-2.25605
H	6.56398	3.02124	-1.48979
H	7.05648	2.01053	-0.0743156
H	5.65747	3.15445	0.0685429
N	4.72058	0.631191	-0.11563
C	3.7739	-0.417482	-0.403115
C	2.85844	-0.570302	0.796944
O	3.09586	0.0194835	1.84932
H	4.88916	0.805006	0.850405
H	3.15783	-0.122119	-1.24326
C	4.49864	-1.74766	-0.704166
H	5.12258	-2.05652	0.161482
H	3.78093	-2.55974	-0.940689
H	5.1688	-1.61025	-1.58072
N	1.7785	-1.36505	0.66236
C	0.848057	-1.56637	1.7486
H	1.60094	-1.83066	-0.19831
H	0.0276612	-2.25195	1.44174
H	0.396144	-0.597847	2.06329
H	1.36395	-2.00948	2.63101
