44
  This energy is 0 and Call times are: 18303
C	-0.835126	-1.38931	3.07978
C	0.130818	-0.753126	2.15601
O	1.2131	-0.345193	2.55433
H	-0.411358	-1.39496	4.10753
H	-1.03184	-2.43613	2.76641
H	-1.78883	-0.820547	3.08745
N	-0.247448	-0.651232	0.879719
C	0.566419	-0.0178653	-0.127766
C	-0.354456	0.552398	-1.19
O	-1.55642	0.293578	-1.1864
H	-1.14822	-0.950944	0.578634
H	1.10119	0.812973	0.315357
C	1.55488	-1.02655	-0.752861
H	1.00632	-1.87382	-1.21683
H	2.19679	-0.547676	-1.52042
H	2.21329	-1.43688	0.0436739
N	0.19115	1.35447	-2.12543
C	-0.608121	1.94723	-3.17232
H	1.165	1.55555	-2.10939
H	0.0221723	2.57339	-3.84156
H	-1.4071	2.59174	-2.73929
H	-1.09709	1.15804	-3.78813
C	126.217	2.32461	1.39457
C	127.418	1.46159	1.46029
O	128.232	1.57687	2.36654
H	126.229	3.03611	2.24866
H	125.297	1.70573	1.45512
H	126.212	2.9019	0.445995
N	127.558	0.563835	0.482097
C	128.696	-0.316574	0.387024
C	128.914	-0.650621	-1.07661
O	128.089	-0.324491	-1.92714
H	126.909	0.509666	-0.270996
H	129.58	0.20328	0.734729
C	128.467	-1.6045	1.20804
H	127.566	-2.14366	0.84483
H	129.342	-2.28453	1.15409
H	128.301	-1.33555	2.27415
N	130.045	-1.30628	-1.4063
C	130.341	-1.6616	-2.77463
H	130.703	-1.55808	-0.704545
H	131.314	-2.19492	-2.8406
H	130.396	-0.750739	-3.41382
H	129.548	-2.32616	-3.18841
