44
  This energy is -0.777 and Call times are: 15639
C	0.856444	-2.29602	2.47134
C	0.192918	-1.05128	2.02244
O	-0.580647	-0.447489	2.75281
H	0.516515	-2.5428	3.50062
H	1.95843	-2.16073	2.47956
H	0.592383	-3.13591	1.79462
N	0.484734	-0.635214	0.787893
C	-0.114909	0.534664	0.19597
C	-0.154605	0.336444	-1.30759
O	0.425138	-0.611821	-1.83333
H	1.0847	-1.1596	0.190458
H	-1.13896	0.622498	0.536896
C	0.68586	1.80593	0.553579
H	1.73372	1.72071	0.194739
H	0.226273	2.71534	0.11508
H	0.708534	1.92664	1.65869
N	-0.852026	1.22892	-2.03774
C	-0.950383	1.11801	-3.47447
H	-1.31786	1.98727	-1.59391
H	-1.56585	1.94534	-3.89155
H	-1.42224	0.15067	-3.76236
H	0.0597971	1.16205	-3.94217
C	7.98775	-0.335673	-1.83568
C	7.24484	-0.326986	-0.555379
O	7.76456	-0.717936	0.4807
H	9.00547	-0.749959	-1.66697
H	8.08134	0.697687	-2.23084
H	7.46058	-0.969396	-2.5797
N	5.98951	0.125213	-0.600725
C	5.1277	0.154103	0.554697
C	3.69343	0.021615	0.0783837
O	3.41964	0.0784657	-1.11891
H	5.56689	0.401635	-1.45911
H	5.34032	-0.703702	1.18047
C	5.31522	1.46455	1.35019
H	5.08702	2.3445	0.711699
H	4.66707	1.49281	2.24998
H	6.3735	1.54431	1.68185
N	2.73971	-0.167915	1.0114
C	1.3481	-0.31024	0.651762
H	2.98127	-0.215258	1.97498
H	0.72077	-0.458096	1.55831
H	1.20391	-1.18657	-0.0209494
H	0.985138	0.59793	0.118258
