44
  This energy is -2.0649 and Call times are: 7552
C	-1.18867	1.59108	-2.85801
C	-1.05061	1.48393	-1.38811
O	-1.38664	2.4015	-0.652213
H	-1.60238	2.59011	-3.1162
H	-1.87894	0.807725	-3.23568
H	-0.197326	1.4759	-3.34489
N	-0.541755	0.341213	-0.921582
C	-0.3074	0.106037	0.481389
C	0.847914	-0.868637	0.611062
O	1.30383	-1.44001	-0.377564
H	-0.234813	-0.380458	-1.53546
H	-0.00264765	1.03206	0.952802
C	-1.57186	-0.459039	1.16481
H	-1.87881	-1.41447	0.688399
H	-1.40843	-0.631376	2.24838
H	-2.40628	0.266941	1.05059
N	1.3564	-1.07542	1.8418
C	2.45993	-1.98106	2.06137
H	0.976783	-0.600746	2.62898
H	2.73311	-2.01408	3.1391
H	3.35512	-1.657	1.48267
H	2.19287	-3.01236	1.7354
C	7.89951	-2.79478	1.03136
C	7.56598	-1.35513	1.1168
O	7.97213	-0.665065	2.04161
H	8.51758	-3.08136	1.90984
H	8.47539	-2.99984	0.104507
H	6.97073	-3.40342	1.03151
N	6.80336	-0.863499	0.137465
C	6.36059	0.508195	0.106315
C	5.03922	0.561921	-0.637102
O	4.61035	-0.425318	-1.23135
H	6.44658	-1.4468	-0.586638
H	6.17548	0.846877	1.11807
C	7.4072	1.41021	-0.583779
H	7.58968	1.06954	-1.62527
H	7.08408	2.47124	-0.601716
H	8.36809	1.34915	-0.0276235
N	4.35526	1.7228	-0.613501
C	3.0861	1.86621	-1.28792
H	4.71655	2.50943	-0.123848
H	2.68214	2.89356	-1.1515
H	2.34278	1.14094	-0.884521
H	3.19741	1.67513	-2.37982
