44
  This energy is 0 and Call times are: 17799
C	-0.63025	-2.5887	-2.23922
C	-1.06533	-1.41803	-1.44462
O	-2.15789	-0.899263	-1.62796
H	-1.42359	-2.85002	-2.97284
H	-0.455612	-3.45974	-1.57323
H	0.304386	-2.35145	-2.7899
N	-0.203149	-0.968015	-0.530015
C	-0.467033	0.188306	0.289647
C	0.861632	0.825621	0.65025
O	1.92222	0.259715	0.392154
H	0.699004	-1.37548	-0.420666
H	-1.02719	0.914233	-0.286447
C	-1.24277	-0.20544	1.56575
H	-0.663827	-0.942208	2.16244
H	-1.46415	0.678345	2.19855
H	-2.20774	-0.676916	1.27784
N	0.834033	2.03098	1.25223
C	2.04872	2.71655	1.62734
H	-0.0338355	2.47492	1.44918
H	1.81705	3.6922	2.10865
H	2.6834	2.9093	0.732184
H	2.64071	2.10327	2.34468
C	95.7722	2.81571	2.03351
C	95.3425	1.42212	1.77966
O	94.9175	0.716131	2.68373
H	95.6536	3.04544	3.11472
H	95.1486	3.52157	1.44562
H	96.8391	2.94417	1.75373
N	95.4481	0.988407	0.521437
C	95.1098	-0.356769	0.128181
C	95.9585	-0.725654	-1.07398
O	96.6433	0.120898	-1.64507
H	95.8342	1.56154	-0.195662
H	95.3698	-1.03884	0.928072
C	93.608	-0.470448	-0.213847
H	93.343	0.221479	-1.04152
H	93.3323	-1.50476	-0.504835
H	93.0063	-0.188312	0.67755
N	95.9391	-2.00959	-1.48281
C	96.7189	-2.4545	-2.61423
H	95.3819	-2.68094	-1.00539
H	96.5689	-3.54222	-2.79195
H	97.8042	-2.27457	-2.43836
H	96.4227	-1.90421	-3.53652
