44
  This energy is -0.0812 and Call times are: 14208
C	0.0284888	-0.417754	3.45505
C	0.424771	0.306937	2.22666
O	0.959045	1.40585	2.28456
H	0.279709	0.201074	4.34377
H	0.573917	-1.38244	3.52305
H	-1.06497	-0.61119	3.44932
N	0.164751	-0.302934	1.06786
C	0.452991	0.295813	-0.211584
C	-0.537589	-0.249582	-1.22294
O	-1.28855	-1.17839	-0.931244
H	-0.307731	-1.17906	1.03569
H	0.294635	1.36524	-0.149327
C	1.90102	-0.0125474	-0.651328
H	2.06095	-1.10934	-0.725557
H	2.13964	0.454673	-1.62872
H	2.60821	0.388515	0.107206
N	-0.567671	0.325261	-2.44142
C	-1.48106	-0.123262	-3.46646
H	0.0449062	1.07838	-2.65737
H	-1.35315	0.474128	-4.39597
H	-2.53647	-0.0187961	-3.12518
H	-1.3018	-1.19528	-3.71096
C	1.29993	-3.25323	1.23562
C	1.14218	-1.79144	1.40721
O	0.646112	-1.32318	2.42262
H	0.893265	-3.77398	2.12965
H	2.37411	-3.51204	1.12659
H	0.744463	-3.59517	0.336948
N	1.5665	-1.02632	0.398777
C	1.44047	0.409874	0.401612
C	1.32998	0.877816	-1.03727
O	1.5189	0.098438	-1.96925
H	1.93054	-1.42414	-0.438525
H	0.521143	0.686811	0.902368
C	2.65381	1.06879	1.09363
H	3.59623	0.793476	0.573928
H	2.56194	2.17406	1.11452
H	2.71976	0.705893	2.14258
N	1.01071	2.16931	-1.252
C	0.87792	2.70316	-2.5875
H	0.857598	2.78366	-0.485055
H	0.610888	3.78245	-2.55484
H	0.0824262	2.16217	-3.14946
H	1.83296	2.59494	-3.15081
