44
  This energy is 0 and Call times are: 18023
C	2.30848	-1.75278	-1.9265
C	1.96176	-0.876033	-0.785338
O	2.77811	-0.624002	0.0901394
H	3.35574	-2.10776	-1.812
H	2.22153	-1.19153	-2.88054
H	1.6316	-2.6327	-1.95251
N	0.719982	-0.386013	-0.769324
C	0.222707	0.446461	0.297571
C	-1.27674	0.239443	0.399362
O	-1.88303	-0.404406	-0.454797
H	0.0541948	-0.633172	-1.46754
H	0.657363	0.123104	1.2352
C	0.547414	1.93324	0.0343242
H	0.0928603	2.26832	-0.922303
H	0.181797	2.58309	0.855626
H	1.64928	2.05988	-0.0444283
N	-1.91173	0.777636	1.45915
C	-3.33654	0.627917	1.64265
H	-1.4034	1.29181	2.14201
H	-3.66942	1.14074	2.57186
H	-3.61173	-0.448992	1.71889
H	-3.89187	1.06605	0.781961
C	107.606	-2.70599	-1.55094
C	107.557	-1.39307	-0.868997
O	106.529	-0.731669	-0.84142
H	106.612	-2.92348	-2.00001
H	107.854	-3.50653	-0.82275
H	108.369	-2.69042	-2.35734
N	108.69	-0.97984	-0.295942
C	108.81	0.294566	0.367446
C	110.253	0.749191	0.261249
O	111.122	-0.00674633	-0.170568
H	109.53	-1.51059	-0.362073
H	108.202	1.02577	-0.151163
C	108.383	0.188134	1.84795
H	109.013	-0.554216	2.38299
H	108.458	1.1661	2.36614
H	107.327	-0.153631	1.9017
N	110.543	2.0073	0.647845
C	111.888	2.52925	0.577473
H	109.826	2.60541	0.99071
H	111.921	3.5805	0.939411
H	112.263	2.50763	-0.471305
H	112.579	1.9204	1.20412
