44
  This energy is -0.9647 and Call times are: 14121
C	1.14571	2.44758	-2.19303
C	0.327848	2.01144	-1.0389
O	-0.20906	2.82519	-0.300014
H	1.17564	3.55847	-2.22309
H	0.701574	2.07429	-3.13968
H	2.18266	2.0627	-2.09447
N	0.215701	0.693849	-0.855153
C	-0.511378	0.118465	0.248863
C	0.110351	-1.22637	0.57508
O	0.959627	-1.72306	-0.162309
H	0.692222	0.0445227	-1.44096
H	-0.393291	0.748626	1.12155
C	-2.00643	-0.0468574	-0.101463
H	-2.12867	-0.701808	-0.990358
H	-2.57969	-0.476175	0.74564
H	-2.43868	0.948384	-0.344362
N	-0.295535	-1.84635	1.70065
C	0.244268	-3.12667	2.09509
H	-0.980756	-1.42673	2.28671
H	-0.21509	-3.47041	3.04801
H	1.3467	-3.05985	2.24155
H	0.0458461	-3.89472	1.31288
C	5.05454	2.73994	-1.6304
C	5.96744	1.57552	-1.58668
O	6.51934	1.16553	-2.59848
H	4.97609	3.10604	-2.67714
H	5.44776	3.55869	-0.991823
H	4.04389	2.44738	-1.27533
N	6.14708	1.00678	-0.392258
C	6.97187	-0.159799	-0.198963
C	6.43097	-0.929555	0.991194
O	5.55454	-0.448454	1.70681
H	5.65902	1.32656	0.414832
H	6.8878	-0.804229	-1.06514
C	8.44489	0.239152	0.0383041
H	8.53302	0.891707	0.932983
H	9.09256	-0.65103	0.174756
H	8.81732	0.808024	-0.841482
N	6.93896	-2.1554	1.22626
C	6.48172	-2.96372	2.33248
H	7.6447	-2.52936	0.633668
H	7.01955	-3.93705	2.35705
H	5.39014	-3.16862	2.24441
H	6.65786	-2.44103	3.30042
