44
  This energy is -1.4488 and Call times are: 12857
C	0.388185	-3.41025	-0.57635
C	0.777476	-1.99897	-0.795181
O	1.81525	-1.71128	-1.37542
H	1.17359	-4.07692	-0.994173
H	-0.574309	-3.62524	-1.08638
H	0.284212	-3.61448	0.510192
N	-0.0607483	-1.07238	-0.324873
C	0.203014	0.341548	-0.423797
C	-0.481936	1.03301	0.739935
O	-1.25736	0.418368	1.46976
H	-0.881291	-1.32211	0.181302
H	1.26702	0.514513	-0.320825
C	-0.309904	0.905796	-1.76685
H	-1.40333	0.737992	-1.86831
H	-0.100311	1.99103	-1.86098
H	0.198845	0.379929	-2.6041
N	-0.20258	2.33517	0.945776
C	-0.802715	3.07452	2.03177
H	0.430619	2.81437	0.347023
H	-0.447225	4.12849	2.03371
H	-0.540765	2.6145	3.0121
H	-1.91283	3.07887	1.9381
C	8.46351	-1.08402	3.11412
C	7.61281	-1.22886	1.91142
O	6.9902	-2.25975	1.69688
H	8.42913	-2.02575	3.70389
H	8.09311	-0.250102	3.74669
H	9.51472	-0.883961	2.81746
N	7.5693	-0.180784	1.08557
C	6.82002	-0.187724	-0.146129
C	7.50212	0.754541	-1.12001
O	8.41725	1.48787	-0.750598
H	8.11386	0.636146	1.25273
H	6.8541	-1.17956	-0.579406
C	5.35808	0.247981	0.0950011
H	5.3222	1.26964	0.529714
H	4.76711	0.233397	-0.84365
H	4.88115	-0.450757	0.816552
N	7.07451	0.749975	-2.39796
C	7.66749	1.6087	-3.39653
H	6.3355	0.146582	-2.67877
H	7.17938	1.45821	-4.38462
H	8.75471	1.3913	-3.50598
H	7.5567	2.67956	-3.10996
