44
  This energy is 0 and Call times are: 16231
C	-1.50345	3.13278	-0.194905
C	-0.321996	2.26471	0.00942884
O	0.808314	2.73135	0.0419561
H	-1.16867	4.18567	-0.318291
H	-2.17996	3.07136	0.683332
H	-2.05384	2.82139	-1.1077
N	-0.562307	0.959186	0.151697
C	0.487971	-0.0149051	0.314858
C	-0.000644482	-1.33611	-0.24836
O	-1.17396	-1.48146	-0.58589
H	-1.4844	0.589378	0.0819841
H	1.34849	0.286325	-0.269441
C	0.870978	-0.169202	1.80306
H	-0.00897364	-0.488437	2.40123
H	1.68836	-0.906446	1.94044
H	1.21793	0.811281	2.19629
N	0.896987	-2.33372	-0.371143
C	0.524787	-3.62436	-0.902079
H	1.84281	-2.19574	-0.0964557
H	1.40151	-4.30855	-0.923312
H	0.13338	-3.52393	-1.94034
H	-0.27015	-4.09204	-0.277187
C	9.35918	-1.2563	3.24263
C	9.90279	-0.325483	2.22812
O	10.6048	0.622929	2.55084
H	9.68029	-0.925394	4.25418
H	9.74025	-2.28351	3.06273
H	8.24951	-1.26146	3.20164
N	9.58239	-0.579743	0.957259
C	10.0007	0.260969	-0.136724
C	8.96555	0.150972	-1.24035
O	8.06684	-0.68589	-1.17974
H	8.97642	-1.33174	0.714032
H	10.0145	1.29301	0.19089
C	11.3926	-0.16107	-0.655892
H	11.3764	-1.21656	-1.00191
H	11.7319	0.487548	-1.48937
H	12.1324	-0.0803752	0.170267
N	9.06415	1.00568	-2.27754
C	8.12116	0.979021	-3.37126
H	9.79589	1.67857	-2.30681
H	8.37074	1.75822	-4.12478
H	7.08666	1.1666	-3.00261
H	8.13294	-0.0139329	-3.87628
