44
  This energy is -0.2975 and Call times are: 12969
C	-1.43387	0.0122156	3.17121
C	-0.576124	-0.599103	2.13116
O	0.161497	-1.53963	2.39141
H	-1.26189	-0.505294	4.13996
H	-2.50401	-0.0906927	2.89381
H	-1.1846	1.08787	3.28919
N	-0.65419	-0.0668197	0.909291
C	0.150453	-0.525994	-0.195366
C	0.361597	0.63949	-1.14332
O	-0.252229	1.69395	-0.99151
H	-1.22884	0.724864	0.722525
H	1.1247	-0.823719	0.171819
C	-0.535129	-1.70113	-0.926303
H	-1.53018	-1.39313	-1.31236
H	0.0811066	-2.07273	-1.77051
H	-0.686851	-2.53941	-0.211727
N	1.24789	0.477715	-2.14549
C	1.51836	1.53361	-3.09318
H	1.73791	-0.381422	-2.2496
H	2.27565	1.20749	-3.83976
H	1.90675	2.43876	-2.57247
H	0.589724	1.8204	-3.63771
C	6.27722	2.8627	-1.96674
C	5.6806	1.6593	-1.34462
O	4.46998	1.48383	-1.3389
H	5.46644	3.50984	-2.36637
H	6.9475	2.56939	-2.80186
H	6.85604	3.43637	-1.21246
N	6.53287	0.790534	-0.795746
C	6.09981	-0.404822	-0.11594
C	7.13569	-0.751932	0.936692
O	8.21011	-0.156001	0.983543
H	7.5127	0.96726	-0.772226
H	5.16941	-0.204758	0.400735
C	5.92635	-1.57323	-1.11092
H	6.88326	-1.78578	-1.6336
H	5.57978	-2.49575	-0.601639
H	5.16985	-1.29407	-1.8765
N	6.83073	-1.72576	1.81684
C	7.75209	-2.12036	2.85683
H	5.95466	-2.19367	1.76548
H	7.31887	-2.93536	3.47758
H	7.98492	-1.25832	3.52313
H	8.70854	-2.48493	2.41703
