44
  This energy is -0.567 and Call times are: 13757
C	-1.31411	-2.47133	2.06841
C	-0.944835	-1.95	0.733126
O	-0.946632	-2.67501	-0.252144
H	-1.54867	-3.55499	1.98761
H	-2.20837	-1.93782	2.45365
H	-0.470347	-2.33822	2.77795
N	-0.612092	-0.65854	0.671497
C	-0.188743	-0.0186216	-0.549093
C	0.741638	1.12345	-0.18631
O	0.886628	1.47004	0.984403
H	-0.575829	-0.0911264	1.48917
H	0.381023	-0.722743	-1.14257
C	-1.40282	0.504737	-1.34744
H	-1.98173	1.23509	-0.742881
H	-1.09081	0.987381	-2.29624
H	-2.0738	-0.346608	-1.59512
N	1.40428	1.73278	-1.18913
C	2.31511	2.8255	-0.939097
H	1.27699	1.43548	-2.1296
H	2.7608	3.19145	-1.89024
H	3.14204	2.50148	-0.266432
H	1.78522	3.67489	-0.450326
C	6.74006	1.18072	2.33972
C	5.69915	0.223009	1.90331
O	5.48004	-0.803496	2.53155
H	7.23698	0.791332	3.25476
H	6.2816	2.16513	2.57097
H	7.50274	1.30651	1.54249
N	5.02521	0.542781	0.796086
C	4.01286	-0.30983	0.22447
C	3.97413	-0.0606729	-1.27152
O	4.60788	0.866359	-1.77219
H	5.24301	1.36169	0.27282
H	4.29307	-1.34539	0.371859
C	2.63228	-0.0271391	0.856406
H	2.33962	1.03247	0.696318
H	1.84677	-0.686996	0.434423
H	2.68621	-0.208235	1.95214
N	3.23032	-0.894193	-2.02518
C	3.13773	-0.738042	-3.45808
H	2.72783	-1.64106	-1.60237
H	2.47981	-1.52005	-3.8972
H	4.14428	-0.822395	-3.92823
H	2.71773	0.260461	-3.71833
