44
  This energy is -0.098 and Call times are: 12381
C	-0.192848	2.91177	1.8966
C	0.391845	2.10668	0.800648
O	1.13848	2.61123	-0.0266154
H	0.145715	3.96614	1.79875
H	0.138954	2.51758	2.88009
H	-1.30162	2.88389	1.84242
N	0.0570446	0.814656	0.769624
C	0.512128	-0.0854202	-0.260581
C	-0.529431	-1.17532	-0.430356
O	-1.46649	-1.27938	0.358823
H	-0.584258	0.427575	1.42595
H	0.575302	0.449535	-1.19998
C	1.88151	-0.697637	0.107157
H	1.8147	-1.25544	1.0655
H	2.2492	-1.38195	-0.684703
H	2.62608	0.118328	0.234259
N	-0.39289	-2.01312	-1.47701
C	-1.33848	-3.0771	-1.72193
H	0.369704	-1.91051	-2.10708
H	-1.05406	-3.65497	-2.62879
H	-2.36217	-2.66514	-1.87563
H	-1.37465	-3.77774	-0.856517
C	7.97259	-2.19594	-2.69733
C	7.95829	-1.91682	-1.2437
O	7.8097	-2.81614	-0.427886
H	7.81562	-3.2838	-2.86399
H	8.95061	-1.90296	-3.13366
H	7.15924	-1.63389	-3.20293
N	8.11299	-0.640783	-0.882874
C	8.07805	-0.208316	0.492009
C	7.57884	1.22392	0.524787
O	7.44041	1.86654	-0.51424
H	8.19187	0.0853355	-1.55992
H	7.36357	-0.811524	1.03817
C	9.47739	-0.308907	1.13773
H	10.2084	0.318038	0.584068
H	9.46085	0.00822213	2.20059
H	9.8261	-1.36387	1.09547
N	7.28724	1.75707	1.72759
C	6.80091	3.11097	1.85643
H	7.40181	1.22005	2.55678
H	6.61912	3.36359	2.92432
H	5.84535	3.23987	1.29824
H	7.54107	3.83526	1.44568
