44
  This energy is -0.0128 and Call times are: 15051
C	1.16251	-1.85144	2.70803
C	0.0786316	-1.17316	1.96219
O	-1.09522	-1.33147	2.26783
H	0.718466	-2.48305	3.50788
H	1.83418	-1.10042	3.17448
H	1.75075	-2.49881	2.02394
N	0.455526	-0.390814	0.948156
C	-0.486278	0.300527	0.103399
C	0.145207	0.475182	-1.26491
O	1.33017	0.204964	-1.45079
H	1.41235	-0.30422	0.685743
H	-1.36897	-0.313536	-0.0247108
C	-0.863374	1.67215	0.704795
H	0.0404448	2.30643	0.82662
H	-1.59865	2.20836	0.0704684
H	-1.31623	1.52061	1.70894
N	-0.639872	0.926559	-2.26288
C	-0.12767	1.11868	-3.59964
H	-1.59733	1.1359	-2.09399
H	-0.926244	1.49465	-4.2765
H	0.259671	0.159522	-4.01347
H	0.707219	1.85631	-3.59841
C	8.65708	-2.69963	-2.17496
C	9.23889	-1.67764	-1.27597
O	10.4117	-1.73082	-0.932249
H	9.43417	-3.45438	-2.42462
H	8.30168	-2.2256	-3.11397
H	7.80759	-3.2105	-1.67451
N	8.4159	-0.709153	-0.867176
C	8.82543	0.331011	0.043262
C	7.60543	0.784909	0.822453
O	6.48045	0.396931	0.513239
H	7.45334	-0.702211	-1.12267
H	9.53081	-0.0761961	0.756872
C	9.45223	1.51777	-0.720915
H	8.72539	1.94259	-1.44568
H	9.78427	2.31937	-0.0297552
H	10.3383	1.16091	-1.29008
N	7.80267	1.61687	1.86406
C	6.70218	2.09697	2.66692
H	8.72079	1.91656	2.10139
H	7.06817	2.76884	3.47431
H	6.15934	1.24591	3.1384
H	5.97669	2.66448	2.04023
