44
  This energy is 0 and Call times are: 15696
C	-2.06604	0.865495	2.66366
C	-1.85621	0.455055	1.25701
O	-2.79233	0.0966492	0.55584
H	-3.14375	0.767112	2.91811
H	-1.75886	1.92323	2.80358
H	-1.47547	0.216205	3.34391
N	-0.599766	0.497245	0.807631
C	-0.232892	0.0872747	-0.524994
C	1.19929	-0.411837	-0.488863
O	1.89141	-0.267276	0.51701
H	0.157187	0.752061	1.40257
H	-0.85684	-0.744536	-0.827338
C	-0.372886	1.25932	-1.52096
H	0.275021	2.10896	-1.21704
H	-0.106512	0.952597	-2.55318
H	-1.42684	1.6136	-1.525
N	1.67654	-1.02276	-1.59115
C	3.02584	-1.53504	-1.64714
H	1.10001	-1.13402	-2.39384
H	3.22857	-2.00172	-2.63625
H	3.18714	-2.30395	-0.857181
H	3.76412	-0.716107	-1.48768
C	6.87049	-3.31648	0.771122
C	5.97152	-2.26804	0.238415
O	4.95599	-2.55859	-0.378603
H	6.47029	-4.317	0.497887
H	6.93048	-3.24326	1.87737
H	7.88686	-3.20541	0.337856
N	6.33333	-1.00353	0.467505
C	5.5832	0.124814	-0.0251417
C	6.54538	1.27994	-0.228728
O	7.70619	1.21052	0.170542
H	7.18405	-0.782598	0.935826
H	5.16386	-0.12012	-0.993019
C	4.46561	0.519126	0.965185
H	4.89617	0.780666	1.95526
H	3.87197	1.37811	0.590675
H	3.7781	-0.34348	1.10511
N	6.08364	2.37326	-0.867055
C	6.92824	3.51927	-1.11092
H	5.14246	2.40913	-1.18637
H	6.36626	4.31479	-1.6481
H	7.80912	3.23332	-1.73025
H	7.30375	3.94216	-0.151072
