44
  This energy is 0 and Call times are: 16763
C	1.56631	1.64235	2.63857
C	1.58268	0.703446	1.49431
O	2.63484	0.265257	1.05006
H	2.61073	1.85237	2.95631
H	1.0139	1.19599	3.492
H	1.08164	2.59687	2.34346
N	0.395309	0.37076	0.982602
C	0.252726	-0.49838	-0.158812
C	-1.0245	-0.119996	-0.884805
O	-1.81846	0.676996	-0.388666
H	-0.449971	0.767605	1.32884
H	1.07499	-0.327939	-0.842522
C	0.209206	-1.97927	0.277427
H	-0.640507	-2.15691	0.970585
H	0.113539	-2.65935	-0.593701
H	1.1501	-2.23177	0.81345
N	-1.24868	-0.680969	-2.08941
C	-2.43432	-0.376634	-2.85611
H	-0.592576	-1.32048	-2.47622
H	-2.43554	-0.936436	-3.81728
H	-2.48531	0.712565	-3.08484
H	-3.35168	-0.653364	-2.28778
C	25.7248	0.257558	3.38311
C	26.5537	0.602275	2.20615
O	27.3729	1.50953	2.25271
H	25.9724	0.945166	4.22081
H	25.9288	-0.786045	3.70248
H	24.6473	0.364567	3.13688
N	26.3534	-0.126111	1.10536
C	27.0534	0.118594	-0.131017
C	26.1621	-0.326382	-1.27524
O	25.1238	-0.948505	-1.05953
H	25.6541	-0.834386	1.0704
H	27.2166	1.18307	-0.244455
C	28.3972	-0.641933	-0.164022
H	28.2295	-1.73497	-0.0582598
H	28.9521	-0.450615	-1.10528
H	29.0298	-0.306234	0.686489
N	26.546	-0.00793608	-2.52713
C	25.7587	-0.384528	-3.67801
H	27.3874	0.499459	-2.68135
H	26.2404	-0.0316212	-4.61649
H	24.7389	0.0601033	-3.61881
H	25.6499	-1.49182	-3.73448
