44
  This energy is -0.8502 and Call times are: 10256
C	-1.2173	-2.79407	1.68049
C	-0.109924	-2.00546	1.09486
O	1.05824	-2.29703	1.31117
H	-0.795875	-3.60927	2.30797
H	-1.83494	-3.2435	0.874718
H	-1.85524	-2.14447	2.31622
N	-0.459561	-0.969532	0.328711
C	0.504892	-0.0839874	-0.274781
C	-0.141102	1.27908	-0.436967
O	-1.34315	1.43488	-0.230762
H	-1.41448	-0.72018	0.195215
H	1.34758	0.0360197	0.394629
C	0.972879	-0.627599	-1.64252
H	0.11017	-0.74093	-2.33312
H	1.72611	0.0384612	-2.11106
H	1.43503	-1.62894	-1.50081
N	0.649987	2.30616	-0.804809
C	0.12467	3.64034	-0.978504
H	1.62108	2.16126	-0.96312
H	0.930901	4.34402	-1.28191
H	-0.325869	4.0117	-0.0296183
H	-0.66548	3.65251	-1.76378
C	5.47462	-2.80949	1.93995
C	5.38018	-2.04537	0.675687
O	4.96772	-2.56802	-0.350533
H	5.14184	-3.85529	1.76275
H	4.82327	-2.35129	2.71361
H	6.52446	-2.82282	2.30151
N	5.7696	-0.76924	0.72305
C	5.77598	0.0887604	-0.435549
C	6.86171	1.13129	-0.246087
O	7.44398	1.24565	0.830755
H	6.14153	-0.369455	1.55593
H	6.03733	-0.493886	-1.3101
C	4.40172	0.76688	-0.627439
H	4.13792	1.37323	0.265193
H	4.38963	1.41948	-1.52437
H	3.62153	-0.0148269	-0.756179
N	7.16636	1.91526	-1.29898
C	8.18955	2.93114	-1.21397
H	6.68705	1.80497	-2.16338
H	8.29174	3.46841	-2.18255
H	9.17439	2.47641	-0.959845
H	7.9392	3.67605	-0.4243
