44
  This energy is -0.1495 and Call times are: 6461
C	-0.954263	-2.92944	1.61879
C	0.0655622	-2.06311	0.98587
O	1.25877	-2.31388	1.08483
H	-0.44766	-3.75712	2.16117
H	-1.62206	-3.36269	0.844783
H	-1.55903	-2.34288	2.34219
N	-0.39044	-1.00477	0.311809
C	0.481746	-0.0471011	-0.32121
C	-0.229118	1.29281	-0.350773
O	-1.41363	1.38443	-0.0341601
H	-1.36246	-0.791077	0.274636
H	1.37454	0.0745866	0.279406
C	0.848943	-0.496942	-1.75231
H	-0.065904	-0.611738	-2.37192
H	1.53136	0.225364	-2.24536
H	1.36079	-1.483	-1.70709
N	0.485616	2.37166	-0.726612
C	-0.105004	3.68868	-0.77956
H	1.44401	2.27821	-0.975231
H	0.64318	4.44217	-1.11076
H	-0.484808	3.98945	0.223716
H	-0.960874	3.70726	-1.4925
C	4.0977	2.22669	-0.800237
C	5.48229	1.72413	-0.946855
O	6.20983	2.12595	-1.84444
H	3.88402	2.95637	-1.61127
H	3.9763	2.73337	0.180216
H	3.37575	1.38618	-0.873644
N	5.88188	0.81633	-0.0532009
C	7.18624	0.203415	-0.0924521
C	7.07814	-1.17865	0.523809
O	6.04989	-1.53415	1.09655
H	5.26465	0.468851	0.646904
H	7.48915	0.0738406	-1.12399
C	8.22059	1.05796	0.672461
H	7.91566	1.18237	1.7334
H	9.23195	0.603572	0.637766
H	8.27724	2.06723	0.209311
N	8.14218	-1.99802	0.412151
C	8.12904	-3.33329	0.962664
H	8.96383	-1.6939	-0.0584735
H	9.09526	-3.84864	0.767531
H	7.31127	-3.93776	0.507534
H	7.96387	-3.30277	2.06399
