44
  This energy is -0.113 and Call times are: 15107
C	-3.33277	0.644573	0.768017
C	-2.14082	-0.233145	0.771492
O	-2.11429	-1.26201	1.43266
H	-4.10611	0.216464	1.44222
H	-3.75109	0.717856	-0.257841
H	-3.06215	1.65889	1.12997
N	-1.11009	0.162804	0.0210343
C	0.133538	-0.563703	-0.0433657
C	1.24392	0.425144	-0.344668
O	0.986049	1.58791	-0.649948
H	-1.13133	1.02364	-0.47935
H	0.343497	-0.999092	0.925647
C	0.0760503	-1.66067	-1.129
H	-0.128864	-1.21341	-2.12499
H	1.02298	-2.23631	-1.17896
H	-0.74843	-2.36823	-0.892479
N	2.51443	-0.0154707	-0.256881
C	3.63634	0.855199	-0.520362
H	2.70322	-0.958704	-0.00441056
H	4.59663	0.307919	-0.395658
H	3.63358	1.72211	0.179443
H	3.59075	1.25117	-1.56068
C	4.18793	-0.889493	0.134438
C	5.62318	-1.18321	0.346489
O	5.98119	-2.1665	0.980029
H	3.57526	-1.6666	0.640994
H	3.95207	-0.896628	-0.950489
H	3.93341	0.103513	0.561323
N	6.49071	-0.319815	-0.186721
C	7.91792	-0.448665	-0.028478
C	8.52821	0.938722	-0.0938472
O	7.84922	1.91073	-0.419251
H	6.18343	0.498046	-0.664773
H	8.13362	-0.849984	0.953885
C	8.51517	-1.35524	-1.12696
H	8.30323	-0.938411	-2.13462
H	9.61168	-1.47353	-1.00783
H	8.04847	-2.36258	-1.06532
N	9.83162	1.0641	0.224596
C	10.4968	2.34587	0.19618
H	10.3635	0.266588	0.489426
H	11.5645	2.24144	0.489879
H	10.0078	3.05785	0.899902
H	10.4556	2.78749	-0.825787
