44
  This energy is 0 and Call times are: 18471
C	2.57054	-1.62368	1.69372
C	2.07517	-0.580468	0.767725
O	2.80347	0.325682	0.387101
H	3.63059	-1.41146	1.95284
H	2.5113	-2.62232	1.21212
H	1.96647	-1.62644	2.62549
N	0.801829	-0.686528	0.380774
C	0.165575	0.276121	-0.483545
C	-1.31713	0.292457	-0.162826
O	-1.80824	-0.547721	0.588592
H	0.209864	-1.40659	0.731415
H	0.553643	1.2633	-0.265591
C	0.394405	-0.0799696	-1.96883
H	-0.0129472	-1.08831	-2.19544
H	-0.0789807	0.661538	-2.64455
H	1.48621	-0.093914	-2.17889
N	-2.06737	1.26175	-0.722872
C	-3.48623	1.35991	-0.471124
H	-1.65121	1.93507	-1.32497
H	-3.92452	2.22166	-1.02113
H	-3.68335	1.50131	0.616269
H	-4.00869	0.432151	-0.798904
C	137.621	-2.71357	-1.64556
C	138.741	-1.77409	-1.41055
O	139.847	-1.97466	-1.89226
H	137.977	-3.55957	-2.27277
H	136.793	-2.19725	-2.17503
H	137.249	-3.11444	-0.679282
N	138.473	-0.710518	-0.649258
C	139.471	0.268612	-0.296912
C	139.09	0.87098	1.04244
O	138	0.627832	1.55518
H	137.579	-0.582353	-0.230598
H	140.426	-0.225031	-0.168799
C	139.57	1.36839	-1.37667
H	138.593	1.88222	-1.50103
H	140.345	2.12091	-1.12365
H	139.842	0.903927	-2.34971
N	139.991	1.67002	1.64734
C	139.719	2.28334	2.92639
H	140.87	1.85167	1.21873
H	140.582	2.90271	3.25703
H	139.528	1.50649	3.70176
H	138.82	2.93841	2.86487
