44
  This energy is -1.9566 and Call times are: 8819
C	0.601148	-1.53535	3.06497
C	0.131701	-0.392475	2.24973
O	-0.484615	0.535163	2.75575
H	0.285702	-1.38757	4.12068
H	1.70871	-1.60318	3.02697
H	0.159874	-2.48173	2.68718
N	0.416257	-0.436863	0.946108
C	-0.0113788	0.580522	0.0184142
C	-0.172415	-0.0616045	-1.34661
O	0.207172	-1.21332	-1.54955
H	0.88298	-1.21829	0.541874
H	-0.984082	0.950652	0.317552
C	1.01191	1.73562	-0.0438831
H	2.00742	1.35815	-0.360921
H	0.687197	2.53199	-0.74451
H	1.11966	2.18539	0.967275
N	-0.751165	0.671412	-2.31809
C	-0.951264	0.141953	-3.64693
H	-1.05552	1.60007	-2.13358
H	-1.44192	0.896086	-4.30096
H	-1.59558	-0.7664	-3.61491
H	0.022555	-0.141613	-4.1078
C	9.41612	3.16941	-0.448699
C	8.29923	2.27265	-0.0751412
O	7.29712	2.70578	0.476746
H	9.17514	4.20755	-0.13239
H	9.56722	3.15475	-1.54856
H	10.3509	2.8475	0.056958
N	8.45169	0.979808	-0.371293
C	7.47028	-0.0201499	-0.0314788
C	8.18903	-1.34234	0.160281
O	9.37645	-1.46233	-0.135274
H	9.29053	0.636022	-0.78362
H	7.01072	0.237362	0.914629
C	6.39995	-0.141216	-1.13827
H	6.86969	-0.415712	-2.1068
H	5.63076	-0.898299	-0.881969
H	5.89244	0.839717	-1.26689
N	7.48247	-2.36976	0.671347
C	8.08382	-3.66394	0.894136
H	6.52374	-2.25216	0.908192
H	7.34139	-4.37457	1.31962
H	8.93839	-3.58296	1.60437
H	8.46818	-4.08852	-0.061452
