44
  This energy is -3.9698 and Call times are: 7834
C	2.41324	2.44711	0.548303
C	1.09522	2.00793	0.0373315
O	0.252607	2.81939	-0.320377
H	2.45404	3.55805	0.552208
H	3.22463	2.05998	-0.103242
H	2.56407	2.07833	1.58481
N	0.884697	0.690297	-0.00630754
C	-0.3635	0.112844	-0.438871
C	-0.53689	-1.22012	0.264483
O	0.380268	-1.70994	0.920688
H	1.56489	0.0435382	0.326726
H	-1.18006	0.751428	-0.125714
C	-0.381685	-0.0772033	-1.97145
H	0.449522	-0.74076	-2.29211
H	-1.34305	-0.508338	-2.31848
H	-0.245264	0.909646	-2.46528
N	-1.72936	-1.83725	0.149626
C	-1.98833	-3.10638	0.788715
H	-2.46064	-1.42325	-0.38225
H	-3.02484	-3.44945	0.576189
H	-1.86652	-3.02219	1.89296
H	-1.27938	-3.88332	0.421429
C	5.87494	1.11052	-2.89805
C	6.50229	0.0471711	-2.08142
O	6.41985	-1.13005	-2.40357
H	5.35272	0.648676	-3.76398
H	6.64992	1.80955	-3.27686
H	5.13503	1.6732	-2.2906
N	7.1525	0.446097	-0.985764
C	7.77682	-0.475245	-0.0692983
C	7.77503	0.155757	1.31034
O	7.44495	1.32994	1.4654
H	7.17606	1.40414	-0.714735
H	7.18309	-1.37899	-0.0114293
C	9.21943	-0.80251	-0.513167
H	9.83181	0.12302	-0.562513
H	9.70616	-1.52182	0.176909
H	9.19717	-1.25581	-1.52823
N	8.13845	-0.617849	2.3522
C	8.16166	-0.105324	3.70237
H	8.39833	-1.56682	2.20732
H	8.48667	-0.89357	4.4167
H	7.14936	0.247127	4.00617
H	8.86553	0.754314	3.78443
