44
  This energy is -4.6295 and Call times are: 5775
C	0.960473	-3.28983	0.60599
C	-0.0737165	-2.24536	0.430796
O	-1.25525	-2.53839	0.310298
H	0.478176	-4.29126	0.586012
H	1.47577	-3.1585	1.58065
H	1.70485	-3.233	-0.216058
N	0.356556	-0.981709	0.410311
C	-0.525253	0.140216	0.204749
C	0.270327	1.25319	-0.450919
O	1.49166	1.17075	-0.566098
H	1.32604	-0.761304	0.468569
H	-1.31051	-0.144218	-0.48453
C	-1.12744	0.621079	1.54317
H	-0.322667	0.922961	2.24691
H	-1.81905	1.47589	1.39654
H	-1.69839	-0.21164	2.00895
N	-0.410048	2.3236	-0.906258
C	0.261818	3.42882	-1.54912
H	-1.39856	2.37029	-0.807612
H	-0.469005	4.21049	-1.85262
H	0.803673	3.08335	-2.45924
H	1.0047	3.89175	-0.85994
C	4.05875	3.0559	-0.492129
C	5.27789	2.23439	-0.318927
O	6.3898	2.70013	-0.52666
H	4.34713	4.07343	-0.834648
H	3.51507	3.14192	0.472109
H	3.3924	2.59627	-1.25225
N	5.0918	0.970935	0.07021
C	6.17785	0.0380059	0.239601
C	5.64652	-1.35883	-0.0213701
O	4.44111	-1.55877	-0.158177
H	4.17835	0.59449	0.195747
H	6.93943	0.237559	-0.503895
C	6.77129	0.134585	1.66218
H	5.99286	-0.0804039	2.42498
H	7.61748	-0.569181	1.80071
H	7.14659	1.16705	1.83396
N	6.5416	-2.36274	-0.105179
C	6.12932	-3.72402	-0.356418
H	7.51317	-2.18062	0.00420638
H	7.01051	-4.40197	-0.389949
H	5.59256	-3.79855	-1.32987
H	5.4424	-4.08089	0.444782
