44
  This energy is -1.834 and Call times are: 11932
C	0.858608	-3.35828	-0.312174
C	0.551752	-2.16202	0.503888
O	0.365183	-2.24921	1.70971
H	0.861779	-4.25768	0.34123
H	1.85809	-3.25346	-0.78418
H	0.0891601	-3.49049	-1.10183
N	0.489679	-0.998736	-0.148254
C	0.158904	0.24456	0.502408
C	-0.501411	1.15172	-0.518673
O	-0.525354	0.847025	-1.7096
H	0.603459	-0.949662	-1.13644
H	-0.566669	0.0567237	1.284
C	1.42199	0.915039	1.08577
H	2.16234	1.11755	0.282708
H	1.17852	1.8665	1.60149
H	1.89306	0.230313	1.82441
N	-1.06381	2.29168	-0.0712181
C	-1.71964	3.21397	-0.968686
H	-1.03788	2.519	0.896628
H	-2.11792	4.08978	-0.410511
H	-2.56815	2.71651	-1.49198
H	-1.00732	3.58454	-1.74097
C	3.85939	1.63401	-2.20466
C	4.17942	1.07665	-0.871215
O	3.47426	1.31377	0.0998284
H	2.94598	2.26328	-2.13013
H	3.67191	0.812631	-2.92781
H	4.69972	2.26205	-2.56864
N	5.27102	0.311901	-0.79407
C	5.7342	-0.265373	0.443175
C	7.23975	-0.429603	0.354073
O	7.83153	-0.246043	-0.707907
H	5.85769	0.161471	-1.58467
H	5.53217	0.42153	1.25556
C	5.05542	-1.6278	0.70447
H	5.27109	-2.33623	-0.123573
H	5.39345	-2.07607	1.66119
H	3.95404	-1.48484	0.757931
N	7.89881	-0.773598	1.47805
C	9.33265	-0.947173	1.49044
H	7.40306	-0.913776	2.32873
H	9.6859	-1.22899	2.50682
H	9.84502	-0.00451054	1.19021
H	9.63782	-1.74783	0.778434
