44
  This energy is -0.5441 and Call times are: 14264
C	-0.950918	2.44695	2.28492
C	-0.762583	1.03178	1.89383
O	-0.8443	0.131151	2.7176
H	-1.14272	2.50338	3.3785
H	-1.81859	2.88099	1.74501
H	-0.0380889	3.03379	2.04943
N	-0.499415	0.802175	0.605259
C	-0.249703	-0.518002	0.0824424
C	0.662317	-0.384809	-1.12256
O	0.925041	0.719701	-1.59452
H	-0.395506	1.54888	-0.045513
H	0.279902	-1.10195	0.824843
C	-1.57066	-1.21392	-0.312547
H	-2.10928	-0.620553	-1.08186
H	-1.39281	-2.23662	-0.703669
H	-2.22551	-1.29343	0.582553
N	1.17598	-1.51539	-1.64597
C	2.0579	-1.48631	-2.78945
H	0.955077	-2.3995	-1.24769
H	2.37354	-2.51562	-3.06893
H	2.97098	-0.888221	-2.56616
H	1.54905	-1.02506	-3.66665
C	0.791574	-0.594322	3.38618
C	1.06231	0.146243	2.13342
O	1.71918	1.17819	2.13746
H	1.25174	-0.051684	4.24038
H	1.22867	-1.61343	3.33039
H	-0.303042	-0.670638	3.55667
N	0.550687	-0.372773	1.01482
C	0.693039	0.256734	-0.274368
C	-0.503562	-0.128631	-1.12361
O	-1.29697	-0.98661	-0.741398
H	-0.016353	-1.1913	1.03313
H	0.668318	1.33232	-0.151377
C	2.00646	-0.179969	-0.959544
H	2.0277	-1.28229	-1.09549
H	2.13438	0.308736	-1.94713
H	2.86797	0.104901	-0.316902
N	-0.666057	0.507647	-2.30037
C	-1.7783	0.211032	-3.17279
H	-0.0157893	1.20189	-2.59062
H	-1.73648	0.838259	-4.09043
H	-2.74577	0.408812	-2.65688
H	-1.76295	-0.860034	-3.47893
