44
  This energy is -0.0016 and Call times are: 16315
C	2.66664	-0.123343	2.23304
C	2.10837	-0.201045	0.864309
O	2.8383	-0.213769	-0.117247
H	3.77532	-0.0656338	2.17478
H	2.38381	-1.02653	2.81356
H	2.28636	0.782541	2.75059
N	0.777803	-0.253283	0.768186
C	0.0870476	-0.288244	-0.496802
C	-1.27596	0.350955	-0.309243
O	-1.68682	0.640332	0.812885
H	0.195562	-0.200751	1.57448
H	0.628891	0.312741	-1.21642
C	-0.0606284	-1.73922	-1.00482
H	-0.62558	-2.35359	-0.271732
H	-0.578716	-1.77841	-1.98491
H	0.948543	-2.18972	-1.12721
N	-2.00937	0.595004	-1.41313
C	-3.31594	1.20544	-1.33289
H	-1.65822	0.35753	-2.31279
H	-3.75801	1.32302	-2.34677
H	-3.25076	2.21216	-0.860079
H	-4.00493	0.580194	-0.720103
C	6.4071	-3.27652	-1.17215
C	7.08093	-2.0063	-0.820495
O	8.30045	-1.9325	-0.759327
H	7.17278	-4.06658	-1.33149
H	5.8193	-3.15218	-2.10584
H	5.7313	-3.59175	-0.349357
N	6.28692	-0.96139	-0.575314
C	6.79407	0.328794	-0.179359
C	5.73679	1.01341	0.666232
O	4.60828	0.536773	0.771008
H	5.29482	-1.04743	-0.589056
H	7.66823	0.19271	0.4451
C	7.13965	1.18862	-1.41488
H	6.24074	1.33734	-2.0504
H	7.54422	2.17944	-1.12312
H	7.90908	0.664709	-2.02302
N	6.08314	2.15116	1.29994
C	5.14503	2.86918	2.13094
H	7.00233	2.51911	1.20626
H	5.61856	3.77773	2.56402
H	4.7899	2.22599	2.96848
H	4.25656	3.18545	1.53787
