44
  This energy is -4.6946 and Call times are: 14093
C	1.91615	-1.36867	-2.56277
C	1.20745	-1.47259	-1.26737
O	1.01647	-2.55756	-0.735582
H	2.18872	-2.38723	-2.91506
H	2.84319	-0.769154	-2.44481
H	1.26047	-0.889894	-3.32037
N	0.793233	-0.325692	-0.723841
C	0.0525209	-0.269793	0.511789
C	-0.830302	0.963528	0.478642
O	-0.711115	1.79951	-0.415024
H	0.920072	0.545919	-1.18868
H	-0.599761	-1.13175	0.576572
C	1.00666	-0.220261	1.72522
H	1.66889	0.66958	1.66464
H	0.448307	-0.19097	2.68329
H	1.64833	-1.12834	1.72484
N	-1.74893	1.10135	1.45494
C	-2.63687	2.23956	1.50215
H	-1.83307	0.412288	2.16711
H	-3.31836	2.1706	2.37852
H	-3.25781	2.29188	0.578586
H	-2.05696	3.1874	1.58241
C	8.66424	0.811399	1.20082
C	7.59232	-0.166976	0.909401
O	7.79948	-1.37086	0.973909
H	9.60201	0.266784	1.44542
H	8.37956	1.44411	2.06764
H	8.84412	1.45701	0.315434
N	6.40284	0.338188	0.574229
C	5.27506	-0.487726	0.221355
C	4.39584	0.295817	-0.734993
O	4.6068	1.48758	-0.951572
H	6.26079	1.31998	0.486157
H	5.62624	-1.36457	-0.308211
C	4.47678	-0.897741	1.47829
H	4.10732	0.00126431	2.01618
H	3.61371	-1.54542	1.22111
H	5.14186	-1.46279	2.1673
N	3.38757	-0.362868	-1.3396
C	2.50244	0.299053	-2.26942
H	3.23521	-1.3281	-1.15472
H	1.73968	-0.41047	-2.6593
H	3.07484	0.707869	-3.13343
H	1.97365	1.14535	-1.77415
