44
  This energy is -0.0999 and Call times are: 14434
C	1.89835	0.699211	-2.83197
C	0.895865	-0.109025	-2.10196
O	0.21109	-0.941428	-2.6804
H	1.878	0.424357	-3.90897
H	2.91452	0.502717	-2.43008
H	1.66436	1.78016	-2.73248
N	0.784914	0.124715	-0.79221
C	-0.175663	-0.552045	0.0431639
C	-0.534149	0.369454	1.19376
O	0.0902052	1.41139	1.3842
H	1.32052	0.834232	-0.343232
H	-1.08139	-0.727428	-0.523877
C	0.397078	-1.88425	0.574609
H	1.32045	-1.70385	1.16527
H	-0.338204	-2.42153	1.20802
H	0.659748	-2.53949	-0.28447
N	-1.5614	0.00804477	1.98759
C	-1.97792	0.824818	3.10364
H	-2.05714	-0.836682	1.81511
H	-2.83804	0.358554	3.63282
H	-2.28743	1.83696	2.75573
H	-1.14414	0.95008	3.83183
C	7.47147	3.08183	-0.527926
C	8.23066	2.13107	0.315196
O	8.75424	2.49071	1.36063
H	7.49747	4.08972	-0.0595985
H	6.41438	2.75425	-0.617349
H	7.9259	3.14365	-1.53923
N	8.30972	0.875063	-0.130428
C	9.04993	-0.15272	0.558262
C	9.52776	-1.1609	-0.469754
O	9.13163	-1.11059	-1.63262
H	7.91297	0.607011	-1.0037
H	9.92942	0.284911	1.01389
C	8.17308	-0.842494	1.62624
H	7.27603	-1.30071	1.15786
H	8.73592	-1.62655	2.17304
H	7.82823	-0.0847126	2.36325
N	10.4033	-2.10127	-0.0633228
C	10.9173	-3.09893	-0.97254
H	10.7154	-2.12331	0.880712
H	11.6234	-3.78103	-0.449669
H	11.4576	-2.61732	-1.81951
H	10.0873	-3.71013	-1.39543
