44
  This energy is 0 and Call times are: 16567
C	-2.92367	1.14538	-1.50099
C	-1.75867	0.233969	-1.44396
O	-1.68628	-0.747056	-2.17112
H	-3.64778	0.769068	-2.25593
H	-2.59745	2.16563	-1.79324
H	-3.42555	1.1873	-0.511319
N	-0.806243	0.54282	-0.560854
C	0.366171	-0.271805	-0.359881
C	0.828247	-0.0901907	1.07367
O	0.326952	0.772205	1.79248
H	-0.898644	1.32181	0.0527473
H	0.102142	-1.31464	-0.484025
C	1.48821	0.123709	-1.34469
H	1.76677	1.19069	-1.21052
H	2.39156	-0.50568	-1.20923
H	1.12528	-0.00947943	-2.38723
N	1.79632	-0.910619	1.52728
C	2.29564	-0.815528	2.87925
H	2.18677	-1.60501	0.931932
H	3.08759	-1.5753	3.06033
H	1.47485	-0.982929	3.61379
H	2.72783	0.193688	3.06856
C	14.0213	-3.1493	1.40446
C	13.9711	-2.23546	0.241052
O	14.3738	-2.58826	-0.858846
H	14.4753	-4.11524	1.09343
H	12.9962	-3.34022	1.78568
H	14.6395	-2.70559	2.21317
N	13.4685	-1.01876	0.463377
C	13.3943	-0.00561296	-0.559649
C	13.4724	1.3521	0.112735
O	13.4149	1.45293	1.33676
H	13.1826	-0.732361	1.37338
H	14.2546	-0.0926295	-1.21161
C	12.0857	-0.134265	-1.36966
H	11.2028	-0.0345364	-0.702851
H	12.0231	0.631744	-2.16955
H	12.0462	-1.13808	-1.84625
N	13.6147	2.43411	-0.677846
C	13.7033	3.76636	-0.126998
H	13.6633	2.33204	-1.66592
H	13.8174	4.52005	-0.937029
H	14.5789	3.85129	0.556668
H	12.7858	4.01294	0.454852
