44
  This energy is -2.0783 and Call times are: 8348
C	2.13553	-0.0444073	-2.74777
C	1.13714	-0.685517	-1.8627
O	0.605187	-1.74326	-2.1703
H	2.26489	-0.66169	-3.66325
H	3.11296	0.0356696	-2.22725
H	1.79027	0.968771	-3.04334
N	0.855156	-0.0461389	-0.725133
C	-0.126324	-0.524018	0.216614
C	-0.700048	0.673455	0.950408
O	-0.203236	1.79034	0.818265
H	1.26609	0.834649	-0.507842
H	-0.940361	-0.992318	-0.322525
C	0.505424	-1.51896	1.21472
H	1.33373	-1.03587	1.77558
H	-0.243344	-1.90475	1.93655
H	0.925746	-2.38304	0.655212
N	-1.7726	0.467912	1.73998
C	-2.38982	1.54861	2.47299
H	-2.16298	-0.442249	1.83097
H	-3.25682	1.17856	3.06341
H	-2.75196	2.33917	1.77646
H	-1.66064	2.0144	3.17475
C	3.97235	0.00374713	3.19606
C	4.47872	0.704262	1.99439
O	4.3059	1.90567	1.84218
H	3.44104	0.730516	3.84827
H	4.81663	-0.439296	3.76497
H	3.26406	-0.798975	2.90103
N	5.12452	-0.0456654	1.09832
C	5.63681	0.485313	-0.140296
C	5.64403	-0.631798	-1.16674
O	5.41131	-1.7928	-0.835642
H	5.22152	-1.02974	1.21681
H	4.96593	1.25347	-0.504269
C	7.0597	1.05483	0.0501978
H	7.75074	0.264578	0.413541
H	7.45981	1.47923	-0.893368
H	7.03186	1.8651	0.811126
N	5.90513	-0.302734	-2.44719
C	5.92802	-1.29787	-3.49378
H	6.08699	0.642742	-2.69634
H	6.16036	-0.830346	-4.47596
H	4.94037	-1.80733	-3.57304
H	6.70017	-2.07268	-3.28263
