44
  This energy is -2.7254 and Call times are: 11025
C	3.45271	0.222573	0.37677
C	2.08462	0.124924	0.933499
O	1.89923	-0.104324	2.12072
H	4.19255	0.0413108	1.18649
H	3.62275	1.23534	-0.0452797
H	3.59724	-0.538324	-0.418993
N	1.07956	0.297681	0.0718776
C	-0.305771	0.189421	0.456177
C	-1.09858	-0.264143	-0.755139
O	-0.575889	-0.315308	-1.86684
H	1.24608	0.442954	-0.899223
H	-0.407414	-0.577523	1.21387
C	-0.84066	1.54088	0.978386
H	-0.74632	2.32561	0.197787
H	-1.90257	1.46708	1.2905
H	-0.240852	1.85717	1.8596
N	-2.3859	-0.614184	-0.564626
C	-3.21671	-1.06356	-1.65733
H	-2.78996	-0.570054	0.343044
H	-4.24166	-1.30459	-1.29873
H	-2.78628	-1.977	-2.12812
H	-3.29545	-0.275679	-2.44103
C	6.4192	1.50456	-2.98112
C	6.38754	0.383428	-2.01509
O	5.56757	-0.518422	-2.11867
H	5.60742	1.36855	-3.72836
H	7.39496	1.52619	-3.51044
H	6.26381	2.46905	-2.45323
N	7.29467	0.417767	-1.03615
C	7.36041	-0.579567	0.00286441
C	7.93586	0.0706673	1.2469
O	8.40625	1.20583	1.20399
H	7.92905	1.17962	-0.941328
H	6.35789	-0.909225	0.24554
C	8.23278	-1.77625	-0.435501
H	9.26428	-1.44018	-0.674457
H	8.27994	-2.55739	0.350711
H	7.79748	-2.23158	-1.35176
N	7.90362	-0.63618	2.39378
C	8.42312	-0.0969417	3.6289
H	7.51525	-1.5516	2.40952
H	8.30521	-0.829015	4.458
H	7.88386	0.837453	3.90709
H	9.5055	0.146417	3.52705
