44
  This energy is -0.9285 and Call times are: 15191
C	1.14353	-2.2388	2.40682
C	0.432974	-1.00233	2.01011
O	-0.246078	-0.377195	2.81293
H	0.92945	-2.45871	3.47532
H	2.23873	-2.10854	2.27916
H	0.798536	-3.09377	1.78786
N	0.57489	-0.618	0.739471
C	-0.089579	0.539838	0.194998
C	-0.310186	0.305041	-1.28749
O	0.20047	-0.658533	-1.85535
H	1.09773	-1.15968	0.0874814
H	-1.06504	0.640814	0.654258
C	0.750583	1.8157	0.422016
H	1.74752	1.71679	-0.0579495
H	0.243158	2.71625	0.019451
H	0.90623	1.96333	1.51304
N	-1.08883	1.18264	-1.95048
C	-1.35948	1.03704	-3.36177
H	-1.49658	1.95381	-1.47288
H	-2.01922	1.85679	-3.7223
H	-1.86421	0.0651667	-3.56669
H	-0.412819	1.06486	-3.94845
C	4.67326	-1.60481	1.44991
C	5.90907	-1.61444	0.635151
O	6.4411	-2.66517	0.30451
H	4.38006	-2.65109	1.68483
H	3.84844	-1.11789	0.888368
H	4.84606	-1.05792	2.40077
N	6.40175	-0.422532	0.290158
C	7.62066	-0.270147	-0.464546
C	8.24808	1.05838	-0.0864956
O	7.63799	1.86756	0.609731
H	5.98024	0.424424	0.601378
H	8.31718	-1.04864	-0.179192
C	7.34019	-0.324112	-1.98233
H	6.63385	0.480938	-2.27734
H	8.27278	-0.221793	-2.57421
H	6.87405	-1.30149	-2.23488
N	9.49409	1.31109	-0.53327
C	10.1736	2.54639	-0.219459
H	9.97323	0.642276	-1.09202
H	11.1871	2.56504	-0.677379
H	10.2848	2.66445	0.882799
H	9.59878	3.41983	-0.603946
