44
  This energy is -1.86 and Call times are: 14631
C	-0.229684	2.29689	2.60466
C	-0.585869	1.82582	1.24732
O	-1.49536	2.34533	0.61538
H	-0.911774	3.12467	2.89691
H	0.815626	2.67091	2.61791
H	-0.335095	1.46886	3.33702
N	0.134872	0.811786	0.762924
C	-0.12134	0.216864	-0.525091
C	0.317875	-1.23427	-0.471615
O	0.944912	-1.66734	0.493264
H	0.845095	0.372511	1.30559
H	-1.18715	0.22445	-0.716439
C	0.63463	0.97063	-1.64115
H	1.72896	0.954083	-1.45086
H	0.434484	0.530568	-2.63955
H	0.303311	2.03192	-1.65665
N	-0.0111776	-2.02587	-1.51138
C	0.359273	-3.4215	-1.54577
H	-0.522403	-1.65827	-2.28118
H	-0.00219954	-3.90138	-2.48186
H	-0.0816478	-3.96637	-0.679751
H	1.46645	-3.53557	-1.49796
C	6.8995	2.3962	-2.47416
C	6.61345	2.00806	-1.07463
O	6.63006	2.83419	-0.172613
H	7.12712	3.48359	-2.51453
H	6.01776	2.18951	-3.11647
H	7.77567	1.83122	-2.85651
N	6.34234	0.718557	-0.859992
C	6.08646	0.18255	0.453696
C	6.51519	-1.27268	0.462525
O	6.83372	-1.84171	-0.579802
H	6.37283	0.0507226	-1.59818
H	6.69984	0.703938	1.17794
C	4.59128	0.308758	0.819418
H	3.96225	-0.234817	0.082599
H	4.38385	-0.0879277	1.83437
H	4.29769	1.38101	0.798934
N	6.54115	-1.90968	1.64978
C	6.94107	-3.29345	1.75656
H	6.28384	-1.43127	2.48284
H	6.89687	-3.63509	2.81418
H	7.98317	-3.43076	1.38717
H	6.27102	-3.94422	1.14938
