44
  This energy is 0 and Call times are: 17043
C	-2.57734	2.14296	-0.936869
C	-1.43865	1.25436	-1.26077
O	-1.21424	0.907146	-2.41207
H	-3.1335	2.38199	-1.8693
H	-2.20886	3.08825	-0.485866
H	-3.26627	1.63878	-0.226751
N	-0.683604	0.85879	-0.233247
C	0.432856	-0.0406288	-0.385304
C	0.599119	-0.811508	0.910712
O	-0.0428839	-0.503991	1.9132
H	-0.903216	1.11674	0.70329
H	0.20829	-0.760632	-1.16235
C	1.72459	0.735604	-0.723147
H	1.96118	1.46701	0.0787906
H	2.5887	0.0528974	-0.856372
H	1.57733	1.29842	-1.67072
N	1.46516	-1.84396	0.917434
C	1.68493	-2.63851	2.10342
H	1.97246	-2.0801	0.0952707
H	2.43198	-3.43901	1.90763
H	0.736084	-3.1184	2.4361
H	2.06165	-2.00353	2.9377
C	41.4014	-1.32865	2.43787
C	41.8365	-0.223716	1.55416
O	41.1521	0.780209	1.41213
H	40.4126	-1.07789	2.87973
H	42.1352	-1.47413	3.25831
H	41.3067	-2.26954	1.85578
N	43.0043	-0.388886	0.928598
C	43.5387	0.579621	0.00395155
C	44.4049	-0.154692	-1.00205
O	44.6839	-1.34179	-0.845038
H	43.5304	-1.2293	1.02245
H	42.7246	1.03702	-0.544421
C	44.3631	1.65434	0.745926
H	45.2047	1.1867	1.30013
H	44.7685	2.41376	0.0463044
H	43.7114	2.17332	1.48228
N	44.846	0.537792	-2.07065
C	45.6713	-0.0789806	-3.08292
H	44.6063	1.4965	-2.18245
H	45.9303	0.653312	-3.87911
H	45.1389	-0.936318	-3.555
H	46.6178	-0.462981	-2.63813
