44
  This energy is 0 and Call times are: 17323
C	-2.58738	-0.276491	2.31121
C	-1.14982	-0.194629	1.96792
O	-0.301118	-0.0263116	2.83267
H	-2.71107	-0.145457	3.40821
H	-2.9947	-1.2673	2.01945
H	-3.15198	0.523731	1.7878
N	-0.840977	-0.311797	0.674374
C	0.510172	-0.210097	0.181817
C	0.456798	0.314437	-1.24071
O	-0.615227	0.418795	-1.83365
H	-1.54629	-0.40744	-0.0222262
H	1.05234	0.516905	0.773555
C	1.21853	-1.58175	0.226933
H	0.668515	-2.32524	-0.388495
H	2.26427	-1.51389	-0.136867
H	1.23896	-1.94992	1.27592
N	1.62075	0.666788	-1.8213
C	1.66736	1.18128	-3.17011
H	2.47754	0.579004	-1.32403
H	2.71402	1.41332	-3.46655
H	1.06388	2.11389	-3.25583
H	1.25594	0.436537	-3.8893
C	65.3024	2.46312	0.986165
C	64.6718	1.13366	1.14769
O	65.1321	0.304434	1.92032
H	66.2007	2.52518	1.63811
H	64.5899	3.26273	1.27895
H	65.6132	2.61353	-0.0692167
N	63.5865	0.897684	0.406923
C	62.8892	-0.364097	0.423144
C	62.2314	-0.558424	-0.93005
O	62.2054	0.353406	-1.75443
H	63.2477	1.5675	-0.247643
H	63.6052	-1.16625	0.551952
C	61.8321	-0.395805	1.54862
H	61.0912	0.420472	1.41105
H	61.2978	-1.36746	1.58035
H	62.3348	-0.243716	2.52868
N	61.6885	-1.76319	-1.19411
C	61.0459	-2.04228	-2.45722
H	61.723	-2.48984	-0.515972
H	60.6636	-3.08652	-2.48171
H	61.763	-1.91176	-3.29993
H	60.1884	-1.35071	-2.6233
