44
  This energy is -0.0117 and Call times are: 15864
C	1.62424	-2.45347	-1.85877
C	0.594936	-1.40039	-1.70811
O	-0.0299926	-0.983345	-2.67348
H	1.70691	-2.73555	-2.9309
H	1.34107	-3.35219	-1.27152
H	2.60921	-2.07872	-1.50879
N	0.395015	-0.938537	-0.471541
C	-0.542079	0.11586	-0.173783
C	-0.0473544	0.85524	1.05509
O	0.898001	0.42326	1.71191
H	0.940273	-1.25884	0.297851
H	-0.555082	0.824062	-0.992876
C	-1.95597	-0.455432	0.0706895
H	-1.94522	-1.1741	0.917709
H	-2.68959	0.347931	0.287343
H	-2.29445	-0.998894	-0.838393
N	-0.674531	1.99976	1.39088
C	-0.269763	2.77416	2.54094
H	-1.43487	2.33541	0.84471
H	-0.90668	3.6796	2.64932
H	0.790481	3.10144	2.4407
H	-0.357863	2.16969	3.4726
C	7.67209	3.40212	0.713267
C	7.04019	2.07109	0.855492
O	6.18066	1.86556	1.70129
H	7.25091	4.09207	1.47643
H	7.469	3.81621	-0.296697
H	8.76908	3.32327	0.866498
N	7.4618	1.12137	0.0172348
C	6.97188	-0.233795	0.0624981
C	8.06663	-1.14991	-0.45115
O	9.0827	-0.688999	-0.967744
H	8.19135	1.29292	-0.638648
H	6.77731	-0.509115	1.09156
C	5.69329	-0.386961	-0.790131
H	5.895	-0.114724	-1.84807
H	5.29841	-1.4229	-0.752261
H	4.90863	0.298223	-0.401317
N	7.88675	-2.4782	-0.312234
C	8.8769	-3.42665	-0.766345
H	7.05978	-2.83199	0.11207
H	8.5456	-4.46881	-0.562905
H	9.84807	-3.25985	-0.246462
H	9.04916	-3.32084	-1.86191
