44
  This energy is -0.3067 and Call times are: 10442
C	-3.36678	-0.746406	-0.469391
C	-2.20076	0.155448	-0.60428
O	-2.2524	1.15623	-1.30583
H	-4.20184	-0.363201	-1.09526
H	-3.69973	-0.785767	0.58907
H	-3.10127	-1.76896	-0.811428
N	-1.10389	-0.187007	0.0754109
C	0.122753	0.567721	0.00995144
C	1.27754	-0.383995	0.259456
O	1.07345	-1.53824	0.630628
H	-1.06396	-1.02652	0.60972
H	0.243769	0.966747	-0.98943
C	0.12553	1.70746	1.05217
H	0.0119916	1.29781	2.07849
H	1.05905	2.3046	1.00236
H	-0.732294	2.38695	0.855228
N	2.52579	0.0793872	0.0516267
C	3.68615	-0.75561	0.25783
H	2.67064	1.01508	-0.252623
H	4.6197	-0.193784	0.0341081
H	3.64859	-1.65076	-0.404411
H	3.73366	-1.10881	1.31335
C	8.43227	2.96328	1.7123
C	7.55512	2.08725	0.903384
O	6.36976	2.34706	0.749039
H	7.83383	3.80696	2.11964
H	9.24938	3.37346	1.08236
H	8.86927	2.39145	2.55795
N	8.12865	1.00999	0.362135
C	7.39505	0.0418229	-0.414411
C	8.08261	-1.30237	-0.266197
O	9.17577	-1.39275	0.28926
H	9.08525	0.789998	0.530584
H	6.39667	-0.0599393	-0.00757464
C	7.33446	0.458105	-1.90044
H	8.35826	0.552388	-2.32116
H	6.7603	-0.272367	-2.50646
H	6.8347	1.44783	-1.98423
N	7.44897	-2.38618	-0.755948
C	8.0239	-3.7074	-0.655872
H	6.56313	-2.29356	-1.19844
H	7.3518	-4.46467	-1.11635
H	8.18629	-3.98533	0.410741
H	9.00774	-3.74843	-1.17695
