44
  This energy is -0.169 and Call times are: 14799
C	-2.33535	2.15742	1.41575
C	-1.97899	0.920731	0.684488
O	-2.80686	0.0425482	0.484891
H	-3.40166	2.10632	1.72601
H	-2.19348	3.04321	0.761545
H	-1.70207	2.26215	2.32189
N	-0.715614	0.823029	0.264117
C	-0.208979	-0.338604	-0.42326
C	1.27492	-0.452565	-0.128986
O	1.8732	0.451515	0.451032
H	-0.0429347	1.52803	0.4699
H	-0.685839	-1.22556	-0.0250769
C	-0.452508	-0.229388	-1.94445
H	0.0453398	0.674721	-2.35526
H	-0.0792165	-1.12419	-2.48343
H	-1.54409	-0.138974	-2.13581
N	1.90479	-1.57869	-0.517749
C	3.31465	-1.77828	-0.275562
H	1.40288	-2.30084	-0.982121
H	3.64541	-2.76482	-0.668714
H	3.53427	-1.74458	0.816182
H	3.91541	-0.982971	-0.773267
C	4.44522	-3.0468	1.61954
C	5.03638	-1.69249	1.53283
O	5.60931	-1.18947	2.48946
H	4.60393	-3.45201	2.64252
H	4.93049	-3.7239	0.885504
H	3.35452	-3.002	1.41598
N	4.9056	-1.06163	0.363516
C	5.39072	0.277525	0.140178
C	4.52007	0.92532	-0.919965
O	3.69381	0.264562	-1.54638
H	4.4009	-1.46764	-0.392983
H	5.27608	0.855186	1.04891
C	6.86846	0.26133	-0.308453
H	6.98497	-0.322353	-1.24642
H	7.25775	1.28738	-0.470287
H	7.48568	-0.224152	0.478744
N	4.68079	2.24502	-1.14034
C	3.89296	2.94829	-2.12568
H	5.35164	2.76359	-0.620598
H	4.17239	4.02446	-2.15747
H	2.80743	2.87501	-1.88581
H	4.0526	2.5143	-3.13924
