44
  This energy is -0.0232 and Call times are: 10769
C	-2.76593	1.50345	1.4839
C	-2.14338	0.676087	0.426054
O	-2.82647	0.0276598	-0.354548
H	-3.87138	1.39947	1.4286
H	-2.49787	2.57148	1.34185
H	-2.42292	1.16643	2.48483
N	-0.809172	0.679172	0.378425
C	-0.0597311	-0.109793	-0.56732
C	1.28396	-0.442091	0.0536621
O	1.63793	0.0832345	1.10744
H	-0.265974	1.1797	1.04646
H	-0.575773	-1.04606	-0.739755
C	0.131786	0.655548	-1.89503
H	0.670467	1.61121	-1.72019
H	0.695531	0.0530607	-2.63646
H	-0.864171	0.895198	-2.32745
N	2.06459	-1.33524	-0.585828
C	3.35731	-1.71729	-0.0670965
H	1.75915	-1.75271	-1.43523
H	3.84451	-2.4618	-0.734603
H	3.25605	-2.16868	0.946449
H	4.02564	-0.829793	0.0154358
C	4.72526	-2.70802	-1.7757
C	3.89287	-2.13404	-0.694579
O	3.10145	-2.82649	-0.069606
H	4.48256	-3.78655	-1.89284
H	5.80198	-2.60719	-1.5242
H	4.5195	-2.18717	-2.73458
N	4.05497	-0.831899	-0.448538
C	3.28565	-0.122936	0.54346
C	3.17443	1.32632	0.108863
O	3.82722	1.75026	-0.842895
H	4.67341	-0.272658	-0.993185
H	2.28202	-0.528433	0.574082
C	3.95236	-0.221892	1.93304
H	4.97814	0.203567	1.90471
H	3.36218	0.308429	2.70826
H	4.03059	-1.29132	2.22724
N	2.33207	2.12239	0.796399
C	2.15669	3.51402	0.451762
H	1.80933	1.76013	1.56098
H	1.42303	3.99847	1.13315
H	1.7846	3.61595	-0.593438
H	3.12303	4.06295	0.529267
