44
  This energy is -4.1496 and Call times are: 10616
C	-1.0073	3.32727	-0.165254
C	-0.00445766	2.25762	-0.368505
O	1.01942	2.46266	-1.00572
H	-0.668104	4.25163	-0.681391
H	-1.12325	3.54237	0.917812
H	-1.98685	3.01872	-0.587573
N	-0.283324	1.07132	0.176746
C	0.575039	-0.0774783	0.0283087
C	-0.285613	-1.32432	0.107218
O	-1.46882	-1.25321	0.43385
H	-1.14002	0.908402	0.657789
H	1.02828	-0.0600829	-0.955004
C	1.66194	-0.099465	1.12531
H	1.19752	-0.127964	2.13404
H	2.33784	-0.971931	1.01359
H	2.27444	0.82577	1.05367
N	0.291122	-2.50271	-0.20068
C	-0.450899	-3.74119	-0.159001
H	1.24869	-2.53958	-0.466712
H	0.197828	-4.59814	-0.445402
H	-1.31472	-3.70537	-0.861716
H	-0.846789	-3.92791	0.865473
C	5.90156	0.173964	-2.65085
C	6.89352	-0.555337	-1.82908
O	7.04919	-1.76279	-1.94837
H	5.37386	-0.545523	-3.31397
H	6.41043	0.935003	-3.27904
H	5.15592	0.673362	-1.99688
N	7.59633	0.17509	-0.960223
C	8.56702	-0.399585	-0.0624182
C	8.63615	0.46986	1.1789
O	8.05961	1.55502	1.22063
H	7.42946	1.15023	-0.845743
H	8.22908	-1.38012	0.248964
C	9.95376	-0.493272	-0.735789
H	10.3056	0.513727	-1.04596
H	10.7068	-0.946966	-0.0593227
H	9.87769	-1.12745	-1.64593
N	9.34181	0.00565448	2.22893
C	9.45891	0.761192	3.45433
H	9.79799	-0.876585	2.17767
H	10.0781	0.211884	4.19738
H	8.45463	0.943138	3.90109
H	9.93569	1.74966	3.26261
