44
  This energy is -2.6335 and Call times are: 8433
C	-3.13872	-1.33978	-0.682753
C	-1.96694	-1.15029	0.201654
O	-1.99647	-1.49677	1.37447
H	-3.96738	-1.79908	-0.101164
H	-2.87647	-2.0118	-1.52676
H	-3.47919	-0.361053	-1.08184
N	-0.891753	-0.58379	-0.351006
C	0.308671	-0.295454	0.393578
C	0.987981	0.899454	-0.248517
O	0.594295	1.34442	-1.32496
H	-0.897087	-0.269816	-1.29613
H	0.0426365	-0.0108214	1.40394
C	1.25633	-1.51489	0.406197
H	1.53796	-1.80077	-0.629657
H	2.17823	-1.3101	0.988155
H	0.735768	-2.37941	0.873082
N	2.02644	1.45494	0.40651
C	2.73088	2.59842	-0.124889
H	2.32781	1.08332	1.27838
H	3.55173	2.90738	0.559196
H	2.03822	3.46154	-0.253404
H	3.17368	2.36013	-1.11902
C	5.87064	2.09859	-2.40957
C	6.93538	1.18988	-1.92819
O	7.80708	0.780531	-2.6825
H	6.0136	2.28913	-3.49544
H	5.91791	3.06543	-1.86577
H	4.87332	1.63569	-2.2542
N	6.88518	0.847415	-0.638773
C	7.82644	-0.0627839	-0.0353459
C	7.13375	-0.763521	1.11822
O	6.02288	-0.400351	1.50002
H	6.146	1.15606	-0.0469894
H	8.10097	-0.822688	-0.756319
C	9.08	0.689641	0.462337
H	8.80006	1.46224	1.20985
H	9.81853	-0.00226486	0.916602
H	9.56617	1.20126	-0.396859
N	7.77531	-1.79715	1.6979
C	7.19155	-2.52762	2.79872
H	8.6718	-2.07889	1.37231
H	7.87202	-3.3401	3.13643
H	6.22206	-2.98561	2.49605
H	6.99874	-1.85007	3.66179
