44
  This energy is -1.8108 and Call times are: 14009
C	-2.89699	0.489266	1.86568
C	-1.60188	0.95744	1.32286
O	-1.27618	2.13469	1.38919
H	-3.4547	1.35538	2.28362
H	-2.72738	-0.252818	2.67394
H	-3.50446	0.0256385	1.06
N	-0.82307	0.0292798	0.762193
C	0.446166	0.339263	0.152677
C	0.707392	-0.679816	-0.940389
O	-0.0156642	-1.66606	-1.06779
H	-1.11984	-0.917764	0.679107
H	0.387348	1.31164	-0.320243
C	1.58162	0.313845	1.19926
H	1.64925	-0.686667	1.67721
H	2.56202	0.564564	0.744858
H	1.36556	1.0615	1.99341
N	1.74996	-0.458772	-1.76514
C	2.07202	-1.37106	-2.83761
H	2.32109	0.34705	-1.64882
H	2.96166	-1.01538	-3.40264
H	1.21814	-1.45949	-3.54779
H	2.29406	-2.38644	-2.43656
C	6.57615	2.32803	2.48376
C	6.34007	1.03724	1.79871
O	5.61673	0.182352	2.29101
H	6.02505	2.33763	3.44919
H	6.21295	3.16741	1.85426
H	7.6597	2.46074	2.68717
N	6.95834	0.864898	0.628057
C	6.85993	-0.354393	-0.134963
C	8.13332	-0.509599	-0.944876
O	8.95532	0.40263	-1.00697
H	7.57647	1.55355	0.259907
H	6.80434	-1.19673	0.543274
C	5.62703	-0.325407	-1.06468
H	5.68874	0.532473	-1.76773
H	5.53242	-1.26451	-1.64748
H	4.70767	-0.203193	-0.451347
N	8.33049	-1.68077	-1.58167
C	9.51548	-1.92152	-2.3716
H	7.65586	-2.40854	-1.51618
H	9.49268	-2.94185	-2.81391
H	10.4312	-1.8323	-1.74329
H	9.59225	-1.18137	-3.20072
