44
  This energy is -1.3499 and Call times are: 14602
C	-0.578905	1.26108	-3.19174
C	-0.983713	1.03768	-1.78556
O	-1.95164	1.61224	-1.30659
H	-1.26449	2.0016	-3.65809
H	-0.635476	0.310095	-3.76197
H	0.458249	1.65564	-3.23332
N	-0.236561	0.184315	-1.08134
C	-0.480265	-0.102183	0.310448
C	0.840722	-0.479466	0.954036
O	1.8457	-0.661063	0.269378
H	0.572528	-0.244373	-1.4731
H	-0.834566	0.794713	0.803074
C	-1.50523	-1.24683	0.466828
H	-1.13749	-2.17021	-0.0293352
H	-1.71181	-1.46754	1.53413
H	-2.46137	-0.952111	-0.0182335
N	0.871015	-0.598443	2.29603
C	2.08458	-0.948553	2.99665
H	0.0485378	-0.443577	2.83327
H	1.90563	-0.996451	4.09342
H	2.881	-0.193613	2.80413
H	2.46098	-1.94123	2.65891
C	7.92974	-1.52545	3.04191
C	7.59067	-1.5852	1.60226
O	7.65835	-2.63566	0.979068
H	8.24406	-2.53426	3.38739
H	7.04499	-1.20354	3.63041
H	8.76418	-0.812159	3.20924
N	7.21401	-0.437747	1.03316
C	6.89462	-0.329228	-0.368543
C	7.20563	1.08653	-0.816286
O	7.4948	1.95685	0.00263099
H	7.20322	0.41721	1.54383
H	7.53568	-0.994392	-0.933531
C	5.40848	-0.663535	-0.623233
H	4.75026	0.0253446	-0.0520547
H	5.1534	-0.597014	-1.70075
H	5.20179	-1.70102	-0.280828
N	7.16115	1.34851	-2.13742
C	7.44754	2.66541	-2.65695
H	6.9292	0.630201	-2.78497
H	7.35885	2.67864	-3.76564
H	8.48128	2.97896	-2.3843
H	6.73775	3.41566	-2.23925
