44
  This energy is -3.9123 and Call times are: 9049
C	-1.0354	-3.11127	-1.16647
C	-1.31399	-1.72526	-0.72773
O	-2.41589	-1.21937	-0.889953
H	-1.94607	-3.53606	-1.64197
H	-0.758547	-3.74036	-0.294495
H	-0.206889	-3.1194	-1.90579
N	-0.302238	-1.06963	-0.154252
C	-0.408053	0.299419	0.285157
C	0.969943	0.929142	0.20686
O	1.96383	0.24288	-0.0232221
H	0.600625	-1.48067	-0.0662303
H	-1.0508	0.844245	-0.39504
C	-0.956937	0.375272	1.72676
H	-0.292262	-0.174629	2.42665
H	-1.05613	1.42491	2.07166
H	-1.96231	-0.0983609	1.76206
N	1.05995	2.26127	0.389544
C	2.32872	2.9487	0.327607
H	0.243993	2.80025	0.570598
H	2.19436	4.03879	0.503333
H	2.80197	2.81049	-0.671493
H	3.0284	2.55265	1.09879
C	4.35054	-1.57606	2.65905
C	5.50545	-1.40586	1.74889
O	6.57241	-1.96213	1.96927
H	4.64378	-2.23458	3.50534
H	3.50186	-2.04378	2.11708
H	4.03333	-0.591542	3.06299
N	5.31443	-0.617093	0.688825
C	6.35669	-0.321313	-0.262358
C	6.08012	1.04675	-0.856905
O	5.02017	1.62817	-0.632964
H	4.45291	-0.13859	0.544998
H	7.30617	-0.262242	0.254966
C	6.41073	-1.39341	-1.37273
H	5.44028	-1.44707	-1.91069
H	7.2184	-1.18434	-2.10381
H	6.60618	-2.38727	-0.914074
N	7.03805	1.59902	-1.62721
C	6.86599	2.89983	-2.23092
H	7.89074	1.11496	-1.79358
H	7.76336	3.17907	-2.82589
H	6.70776	3.67781	-1.44926
H	5.9809	2.9052	-2.90748
