44
  This energy is -2.8376 and Call times are: 4477
C	1.32942	1.57896	2.80218
C	0.977886	0.362199	2.03598
O	1.3828	-0.740263	2.37808
H	1.9877	1.29961	3.65336
H	0.410967	2.05896	3.20066
H	1.86957	2.29838	2.15121
N	0.204514	0.539765	0.962324
C	-0.185642	-0.542487	0.0933765
C	-0.403418	0.0227265	-1.29754
O	-0.40397	1.23694	-1.49096
H	-0.0834148	1.44825	0.673152
H	0.624736	-1.25775	0.0276678
C	-1.47141	-1.22653	0.607311
H	-2.30586	-0.495497	0.664885
H	-1.7744	-2.07049	-0.0457254
H	-1.29139	-1.62558	1.62942
N	-0.586309	-0.851897	-2.30631
C	-0.795516	-0.406559	-3.66429
H	-0.578485	-1.83077	-2.13076
H	-0.925293	-1.27481	-4.34731
H	0.0743147	0.192034	-4.01975
H	-1.70544	0.23259	-3.73256
C	4.35784	3.44298	-0.251339
C	5.21776	2.23862	-0.216192
O	6.40328	2.29846	-0.511765
H	4.96003	4.31452	-0.588448
H	3.95449	3.65489	0.761156
H	3.51643	3.29185	-0.960039
N	4.62766	1.09858	0.150507
C	5.32383	-0.163268	0.190826
C	4.31532	-1.26815	-0.0615958
O	3.11029	-1.02593	-0.0923419
H	3.65248	1.05791	0.348603
H	6.04799	-0.197583	-0.613564
C	6.01939	-0.366269	1.55473
H	5.27555	-0.341674	2.37943
H	6.57048	-1.32821	1.59335
H	6.74698	0.457754	1.72189
N	4.78912	-2.51436	-0.257755
C	3.90491	-3.62814	-0.510427
H	5.76772	-2.68992	-0.233223
H	4.48467	-4.56774	-0.645512
H	3.30412	-3.45149	-1.43191
H	3.19921	-3.7705	0.339788
