44
  This energy is -0.0947 and Call times are: 13417
C	1.0717	-0.243713	-3.30223
C	0.0466708	-0.417638	-2.24857
O	-1.11353	-0.682533	-2.53172
H	0.598746	-0.374024	-4.29984
H	1.87484	-1.0011	-3.18359
H	1.51204	0.774001	-3.24348
N	0.459954	-0.267416	-0.988013
C	-0.429847	-0.363966	0.142249
C	0.123083	0.506201	1.25519
O	1.24129	1.00935	1.16473
H	1.39865	-0.0114923	-0.775352
H	-1.3981	0.0372202	-0.130078
C	-0.563854	-1.828	0.615401
H	0.427712	-2.23669	0.904897
H	-1.25728	-1.91738	1.47662
H	-0.962537	-2.44776	-0.217249
N	-0.657029	0.711333	2.33471
C	-0.217159	1.52955	3.4407
H	-1.56052	0.29909	2.38785
H	-0.998976	1.57648	4.2305
H	-0.000914562	2.56786	3.09949
H	0.712733	1.1137	3.89182
C	8.28295	-2.949	1.16739
C	8.30864	-1.73181	0.325395
O	9.33189	-1.37707	-0.243395
H	9.29566	-3.40735	1.18138
H	7.56115	-3.68475	0.754552
H	7.99173	-2.6891	2.20696
N	7.16305	-1.05317	0.22818
C	7.04321	0.17361	-0.519617
C	5.94559	1.00802	0.11327
O	5.22267	0.537519	0.989467
H	6.34919	-1.33183	0.730013
H	7.9651	0.735316	-0.434561
C	6.7187	-0.113366	-2.00204
H	5.76758	-0.680469	-2.09043
H	6.63759	0.82292	-2.59137
H	7.53109	-0.7317	-2.44252
N	5.80084	2.27807	-0.313395
C	4.78713	3.14873	0.234793
H	6.39805	2.64217	-1.02039
H	4.82867	4.15147	-0.244826
H	4.93228	3.27866	1.33176
H	3.7713	2.72239	0.0690829
