44
  This energy is -0.1776 and Call times are: 15948
C	1.172	-3.07437	1.13462
C	0.968858	-2.07117	0.0652904
O	1.52629	-2.17923	-1.01822
H	1.88204	-3.85212	0.778498
H	0.2072	-3.55957	1.39247
H	1.59486	-2.58896	2.03942
N	0.153143	-1.05417	0.35287
C	-0.10879	0.021862	-0.570229
C	-0.433784	1.26646	0.234075
O	-0.602084	1.20414	1.45042
H	-0.261067	-0.958209	1.25347
H	0.788522	0.230733	-1.13929
C	-1.27832	-0.333498	-1.51424
H	-2.20179	-0.537574	-0.931501
H	-1.48074	0.481551	-2.23898
H	-1.02189	-1.25155	-2.08676
N	-0.521635	2.43534	-0.430776
C	-0.821246	3.67251	0.251751
H	-0.378174	2.46636	-1.41441
H	-0.84953	4.52115	-0.466732
H	-0.0484845	3.89239	1.02361
H	-1.81016	3.61092	0.761057
C	9.18443	-3.2626	0.923507
C	8.75379	-2.25872	-0.0754617
O	8.69461	-2.5351	-1.26564
H	9.43352	-4.21368	0.404604
H	8.36764	-3.45335	1.65098
H	10.0845	-2.90213	1.46477
N	8.4406	-1.04938	0.395471
C	8.046	0.043066	-0.458585
C	8.44673	1.34066	0.217607
O	8.85771	1.34619	1.37639
H	8.53303	-0.827558	1.36196
H	8.59303	-0.0170096	-1.3912
C	6.5242	0.0165525	-0.720676
H	5.96249	0.0887777	0.234993
H	6.20995	0.844786	-1.38835
H	6.25253	-0.944962	-1.20855
N	8.34339	2.47713	-0.49916
C	8.70693	3.75864	0.0591852
H	8.01261	2.45199	-1.43673
H	8.55176	4.5703	-0.685373
H	9.77814	3.76405	0.365387
H	8.08964	3.9849	0.95858
