44
  This energy is -1.6223 and Call times are: 12149
C	-2.95801	-1.55202	0.976794
C	-2.22026	-0.462755	0.29828
O	-2.79634	0.334779	-0.428685
H	-4.03172	-1.50052	0.693298
H	-2.87163	-1.44434	2.07847
H	-2.55201	-2.53872	0.669072
N	-0.905539	-0.406466	0.523473
C	-0.0476393	0.570298	-0.0998248
C	1.33987	-0.0302416	-0.225191
O	1.61499	-1.0988	0.31721
H	-0.444371	-1.08743	1.08515
H	-0.404123	0.770846	-1.10249
C	-0.00111632	1.87264	0.729017
H	0.374522	1.66918	1.75446
H	0.645339	2.63769	0.252243
H	-1.02812	2.29015	0.814486
N	2.24942	0.644172	-0.955891
C	3.59364	0.147168	-1.13544
H	2.00683	1.50516	-1.39055
H	4.18894	0.842629	-1.76724
H	3.58052	-0.851203	-1.62976
H	4.10728	0.0391198	-0.152769
C	3.40647	1.1947	2.73289
C	4.51723	1.29274	1.75936
O	5.18945	2.31052	1.66636
H	3.3172	2.15479	3.28617
H	3.60494	0.378564	3.45903
H	2.45076	0.994445	2.20414
N	4.73573	0.217979	0.998084
C	5.75244	0.178147	-0.023314
C	5.30194	-0.789228	-1.10165
O	4.31396	-1.50197	-0.935516
H	4.15396	-0.588202	1.05703
H	5.83684	1.15561	-0.481644
C	7.11007	-0.262456	0.566559
H	7.02661	-1.26969	1.02759
H	7.90444	-0.283699	-0.207424
H	7.41622	0.455137	1.35881
N	6.01674	-0.830078	-2.24331
C	5.66	-1.71555	-3.32722
H	6.81066	-0.242743	-2.3608
H	6.36816	-1.60166	-4.17738
H	4.63227	-1.49218	-3.69485
H	5.68322	-2.77746	-2.99113
