44
  This energy is -1.2915 and Call times are: 6433
C	-0.456151	-3.42873	-0.385274
C	0.276356	-2.17236	-0.661172
O	1.3669	-2.18407	-1.21523
H	0.149236	-4.29187	-0.737936
H	-1.42914	-3.42979	-0.920091
H	-0.634041	-3.53634	0.705536
N	-0.316977	-1.04166	-0.271496
C	0.291695	0.255298	-0.432679
C	-0.228473	1.16184	0.666937
O	-1.14973	0.801496	1.3971
H	-1.18593	-1.05112	0.215022
H	1.3625	0.166589	-0.298034
C	-0.0322341	0.847977	-1.82158
H	-1.13029	0.949014	-1.95611
H	0.442307	1.84059	-1.96319
H	0.350414	0.164365	-2.61063
N	0.360127	2.36488	0.816227
C	-0.0641252	3.29224	1.83906
H	1.10685	2.63699	0.218368
H	0.541601	4.22436	1.80052
H	0.0514787	2.84075	2.85102
H	-1.13581	3.56439	1.70283
C	6.56195	-0.942474	3.2563
C	6.20183	-0.740084	1.83485
O	5.14924	-1.16773	1.38145
H	5.75878	-1.52344	3.75953
H	6.67045	0.0374745	3.76686
H	7.51537	-1.50655	3.33293
N	7.08514	-0.0735117	1.08797
C	6.8946	0.164024	-0.321221
C	8.26091	0.267416	-0.972433
O	9.28214	0.315087	-0.289397
H	7.9561	0.232712	1.4615
H	6.39075	-0.687118	-0.762029
C	6.08271	1.45631	-0.558038
H	6.60438	2.33139	-0.115161
H	5.91738	1.64284	-1.63896
H	5.09003	1.36138	-0.0661827
N	8.31132	0.296113	-2.31878
C	9.56712	0.38778	-3.0264
H	7.47446	0.252393	-2.85435
H	9.39916	0.397841	-4.12591
H	10.2212	-0.479752	-2.77972
H	10.1093	1.31969	-2.74579
