44
  This energy is -0.7988 and Call times are: 12745
C	0.549913	-2.89072	-1.8585
C	-0.313881	-2.01645	-1.03349
O	-1.51634	-2.22087	-0.940125
H	-0.0736013	-3.67669	-2.33742
H	1.31829	-3.37915	-1.22307
H	1.05011	-2.29594	-2.65169
N	0.291208	-1.0039	-0.408191
C	-0.42331	-0.0435976	0.395451
C	0.337651	1.26816	0.35307
O	1.45599	1.33139	-0.153923
H	1.26395	-0.82615	-0.526715
H	-1.39755	0.134357	-0.0425304
C	-0.566342	-0.539833	1.85097
H	0.433058	-0.712474	2.30421
H	-1.12689	0.184665	2.4766
H	-1.11912	-1.50459	1.85715
N	-0.259371	2.35471	0.881262
C	0.386047	3.64685	0.881241
H	-1.16628	2.28458	1.28335
H	-0.264856	4.41157	1.35952
H	0.60629	3.97587	-0.160158
H	1.34837	3.60554	1.44104
C	8.7902	0.635656	3.14001
C	9.9231	0.270294	2.26012
O	11.0691	0.232884	2.68632
H	9.17433	0.862633	4.15823
H	8.07044	-0.207079	3.20702
H	8.27159	1.53376	2.74311
N	9.62177	-0.00967955	0.990005
C	10.6213	-0.339621	0.0047865
C	10.1053	0.0913531	-1.35519
O	8.94439	0.470817	-1.49701
H	8.68939	0.0649257	0.647999
H	11.5206	0.229734	0.203792
C	10.9258	-1.8537	0.0134621
H	10.0056	-2.43789	-0.201071
H	11.7041	-2.11837	-0.731376
H	11.2943	-2.14816	1.02035
N	10.9651	0.0503111	-2.39198
C	10.565	0.446699	-3.722
H	11.9017	-0.255752	-2.25671
H	11.4123	0.342395	-4.43505
H	10.2283	1.5087	-3.73075
H	9.72219	-0.185668	-4.08376
