44
  This energy is -0.947 and Call times are: 14518
C	1.20168	2.1653	2.44543
C	0.617842	0.872545	2.02228
O	0.548326	-0.0736217	2.79451
H	1.54325	2.08628	3.5004
H	0.440826	2.9707	2.37341
H	2.07162	2.42049	1.8042
N	0.180083	0.802939	0.762954
C	-0.373243	-0.400666	0.193985
C	-0.105644	-0.384366	-1.29923
O	0.344085	0.62004	-1.84752
H	0.280874	1.56864	0.134139
H	0.142367	-1.25977	0.604735
C	-1.88959	-0.495502	0.471337
H	-2.42037	0.380349	0.0409938
H	-2.32481	-1.42487	0.0501618
H	-2.06233	-0.497873	1.56975
N	-0.370202	-1.50823	-1.99418
C	-0.141922	-1.5878	-3.41817
H	-0.729874	-2.31216	-1.53222
H	-0.42015	-2.59268	-3.8055
H	0.931518	-1.40593	-3.65464
H	-0.74829	-0.823991	-3.95673
C	4.80721	-0.703623	-1.63123
C	6.13731	-0.0568955	-1.57001
O	6.64011	0.4518	-2.5624
H	4.41884	-0.647037	-2.67133
H	4.09745	-0.183932	-0.953805
H	4.88661	-1.77083	-1.33485
N	6.74697	-0.064876	-0.382304
C	8.06275	0.487212	-0.176234
C	8.71818	-0.266052	0.965948
O	8.07401	-1.06075	1.648
H	6.343	-0.518867	0.406718
H	8.66369	0.318104	-1.06105
C	7.98397	1.99586	0.144715
H	7.37631	2.16907	1.05839
H	8.99168	2.43562	0.291856
H	7.49387	2.52588	-0.700993
N	10.0262	-0.037953	1.19629
C	10.7357	-0.712981	2.25795
H	10.5316	0.605659	0.631089
H	11.8003	-0.391711	2.28581
H	10.7065	-1.81685	2.10994
H	10.2744	-0.484838	3.24603
