44
  This energy is 0 and Call times are: 18275
C	1.551	-2.17176	2.23396
C	0.388292	-1.75049	1.42045
O	-0.573757	-2.48908	1.26122
H	1.38132	-3.20398	2.61025
H	1.67888	-1.48976	3.10071
H	2.4739	-2.16153	1.61651
N	0.454239	-0.532882	0.876894
C	-0.580368	-0.000749411	0.0254344
C	0.0586037	0.981909	-0.937713
O	1.23013	1.32833	-0.799055
H	1.26171	0.0405726	0.981814
H	-1.00404	-0.802882	-0.565934
C	-1.67806	0.694948	0.85989
H	-1.24574	1.52472	1.45874
H	-2.48749	1.09681	0.216578
H	-2.12616	-0.0407071	1.563
N	-0.700028	1.44994	-1.94838
C	-0.175845	2.3844	-2.91699
H	-1.64467	1.15481	-2.04646
H	-0.952306	2.64922	-3.66812
H	0.696131	1.94568	-3.45406
H	0.162223	3.32073	-2.41683
C	125.004	3.17447	0.294062
C	125.325	1.83623	0.839401
O	125.181	1.58593	2.0281
H	124.659	3.83452	1.11955
H	124.196	3.0954	-0.463832
H	125.906	3.62375	-0.172574
N	125.777	0.932567	-0.0331824
C	126.171	-0.398729	0.355059
C	127.232	-0.879832	-0.616269
O	127.495	-0.23734	-1.63112
H	125.927	1.16354	-0.99015
H	126.625	-0.364638	1.33773
C	124.959	-1.35628	0.350909
H	124.5	-1.39971	-0.659601
H	125.247	-2.38147	0.661552
H	124.192	-0.980456	1.06262
N	127.877	-2.02579	-0.320862
C	128.906	-2.55818	-1.18333
H	127.654	-2.52946	0.507031
H	129.315	-3.50575	-0.768755
H	129.744	-1.83161	-1.28996
H	128.499	-2.76671	-2.19902
