44
  This energy is -3.122 and Call times are: 9188
C	1.04771	-0.805257	3.21971
C	0.463563	-1.17089	1.90966
O	0.296615	-2.3413	1.59554
H	1.29207	-1.73128	3.7842
H	0.321665	-0.206364	3.80873
H	1.97845	-0.21762	3.07309
N	0.136872	-0.158989	1.10237
C	-0.401231	-0.357696	-0.220321
C	-0.0023179	0.82948	-1.0765
O	0.525191	1.81971	-0.573603
H	0.316658	0.787303	1.35551
H	0.0490361	-1.23867	-0.660523
C	-1.93838	-0.50036	-0.174873
H	-2.40149	0.407569	0.26697
H	-2.36341	-0.667686	-1.18575
H	-2.20752	-1.37017	0.463362
N	-0.239303	0.753013	-2.40089
C	0.111357	1.83176	-3.29505
H	-0.663274	-0.0581833	-2.78984
H	-0.162721	1.57879	-4.34296
H	1.20664	2.03238	-3.25795
H	-0.42094	2.76782	-3.00942
C	8.01906	-2.7799	-0.32234
C	7.06513	-1.94724	0.444367
O	6.56298	-2.3537	1.48314
H	8.14771	-3.75775	0.190613
H	9.00536	-2.27376	-0.383726
H	7.6318	-2.96001	-1.34736
N	6.78855	-0.74315	-0.0616656
C	5.8472	0.162715	0.548115
C	5.25005	1.03008	-0.543975
O	5.70444	1.00629	-1.68619
H	7.17374	-0.442647	-0.929524
H	5.03719	-0.406144	0.987323
C	6.53696	1.03742	1.61787
H	7.36124	1.62915	1.16569
H	5.81962	1.72962	2.1045
H	6.97345	0.381582	2.40252
N	4.2046	1.81518	-0.217383
C	3.56802	2.67033	-1.19188
H	3.84837	1.81767	0.711147
H	2.72885	3.23595	-0.730247
H	3.16199	2.06847	-2.03697
H	4.29726	3.40234	-1.60845
