44
  This energy is -0.0783 and Call times are: 13137
C	1.00231	2.8492	1.7292
C	0.967539	2.0088	0.511142
O	1.36607	2.43543	-0.563832
H	1.40881	3.85154	1.47238
H	1.65445	2.38295	2.49735
H	-0.022401	2.97129	2.13927
N	0.479155	0.774679	0.655379
C	0.342033	-0.144612	-0.446738
C	-0.81297	-1.07976	-0.141737
O	-1.34478	-1.08306	0.966811
H	0.12068	0.455824	1.52813
H	0.0827883	0.406942	-1.34184
C	1.6448	-0.945569	-0.662417
H	1.90552	-1.51988	0.252038
H	1.55653	-1.64711	-1.51715
H	2.4778	-0.240766	-0.876201
N	-1.23538	-1.89432	-1.12869
C	-2.33151	-2.81419	-0.932461
H	-0.795138	-1.87427	-2.02024
H	-2.52797	-3.39549	-1.86021
H	-3.26147	-2.26459	-0.659725
H	-2.10084	-3.5311	-0.111499
C	3.30447	2.46724	-0.211724
C	4.60039	1.95641	0.289054
O	5.39468	2.69357	0.85662
H	3.23119	3.55563	0.00251001
H	2.46575	1.94416	0.293936
H	3.22966	2.31106	-1.30857
N	4.84663	0.660379	0.0839827
C	6.08188	0.0286492	0.475929
C	6.33818	-1.13343	-0.465056
O	5.47869	-1.49697	-1.26556
H	4.20798	0.0822925	-0.415824
H	6.89718	0.730373	0.351451
C	6.0099	-0.464119	1.93786
H	5.18025	-1.19205	2.06373
H	6.96003	-0.940112	2.256
H	5.8138	0.401467	2.60767
N	7.53886	-1.74133	-0.395374
C	7.87464	-2.85233	-1.25509
H	8.22294	-1.43023	0.256031
H	8.90554	-3.21388	-1.04591
H	7.81961	-2.55074	-2.32621
H	7.1674	-3.69866	-1.09796
