44
  This energy is -0.7354 and Call times are: 9077
C	1.10864	-0.67486	3.22927
C	0.700968	-1.10876	1.87403
O	0.881653	-2.25814	1.49629
H	1.58171	-1.52859	3.76146
H	0.221743	-0.338581	3.80639
H	1.84165	0.156447	3.1606
N	0.134044	-0.180954	1.09933
C	-0.275895	-0.441266	-0.258148
C	-0.194381	0.859551	-1.03454
O	0.0141535	1.9252	-0.457805
H	0.0309576	0.760862	1.40629
H	0.420145	-1.13372	-0.71495
C	-1.71161	-1.00878	-0.301679
H	-2.42761	-0.294165	0.157351
H	-2.03378	-1.22639	-1.34061
H	-1.74956	-1.95607	0.279308
N	-0.349839	0.800361	-2.37183
C	-0.282689	1.9861	-3.19384
H	-0.513715	-0.0717394	-2.8209
H	-0.434631	1.73068	-4.2657
H	0.709873	2.48114	-3.08882
H	-1.067	2.71787	-2.89298
C	3.31086	-2.55911	-1.34294
C	4.25961	-2.0346	-0.335
O	4.52669	-2.67152	0.674658
H	2.923	-3.54443	-1.00449
H	3.82346	-2.69068	-2.31899
H	2.45714	-1.85964	-1.46532
N	4.79656	-0.839356	-0.590855
C	5.70288	-0.180141	0.316099
C	5.55863	1.31773	0.123391
O	4.89373	1.77203	-0.805709
H	4.53806	-0.314766	-1.39698
H	5.4136	-0.403564	1.33542
C	7.16016	-0.621479	0.0576031
H	7.46089	-0.382924	-0.984845
H	7.86619	-0.131267	0.758838
H	7.24052	-1.72175	0.196485
N	6.17615	2.12441	1.00881
C	6.09059	3.56274	0.90851
H	6.70627	1.73811	1.75636
H	6.66439	4.04893	1.72803
H	5.03049	3.89879	0.97572
H	6.50308	3.9141	-0.064908
