44
  This energy is -0.1385 and Call times are: 12773
C	2.21772	-1.06053	-2.46367
C	1.89467	-0.273696	-1.2522
O	2.77439	0.261137	-0.591559
H	3.31951	-1.07174	-2.61136
H	1.7402	-0.603224	-3.35563
H	1.86001	-2.1054	-2.34801
N	0.602463	-0.186806	-0.928106
C	0.136939	0.508032	0.246222
C	-1.157	-0.142065	0.698613
O	-1.71693	-0.984029	-0.000874826
H	-0.0984345	-0.661734	-1.45256
H	0.857465	0.382365	1.04477
C	-0.0854662	2.00706	-0.051597
H	-0.832413	2.1368	-0.863554
H	-0.430775	2.55577	0.848512
H	0.872338	2.46035	-0.388478
N	-1.66007	0.230522	1.89198
C	-2.88379	-0.338025	2.4072
H	-1.19048	0.910332	2.44552
H	-3.13122	0.0960527	3.40097
H	-2.7864	-1.44199	2.5214
H	-3.73298	-0.136149	1.71491
C	6.04214	1.43785	1.13859
C	6.79141	0.33798	0.490487
O	6.26241	-0.741865	0.265731
H	5.01016	1.09396	1.36798
H	5.98621	2.31474	0.459858
H	6.54078	1.73467	2.08534
N	8.0629	0.592606	0.172908
C	8.93112	-0.392003	-0.423158
C	10.3568	-0.0767958	-0.0112349
O	10.6264	0.970503	0.573734
H	8.49139	1.46265	0.399327
H	8.68899	-1.36953	-0.0251265
C	8.79809	-0.385639	-1.96183
H	9.05657	0.614034	-2.37157
H	9.45146	-1.14905	-2.43174
H	7.74536	-0.610708	-2.24011
N	11.3073	-0.986746	-0.301902
C	12.6906	-0.775586	0.0561148
H	11.0691	-1.83011	-0.772077
H	13.3164	-1.63615	-0.267861
H	12.7976	-0.659996	1.15905
H	13.0854	0.147075	-0.427614
