44
  This energy is -0.8395 and Call times are: 8847
C	2.72824	-0.664509	-2.05617
C	2.09926	-0.553368	-0.720812
O	2.66396	-0.969268	0.28146
H	3.71214	-1.17255	-1.95759
H	2.88702	0.345256	-2.48965
H	2.08244	-1.26057	-2.73495
N	0.89365	0.0185494	-0.678443
C	0.138217	0.158556	0.541507
C	-1.33693	0.156313	0.187262
O	-1.70317	0.21197	-0.985123
H	0.42915	0.315105	-1.508
H	0.319264	-0.701229	1.17445
C	0.516255	1.46239	1.27794
H	0.320808	2.34544	0.632909
H	-0.0486839	1.5749	2.22595
H	1.60133	1.44568	1.52018
N	-2.22305	0.0828709	1.1999
C	-3.64707	0.0693592	0.958739
H	-1.90741	0.0344098	2.14176
H	-4.20766	0.00476968	1.91727
H	-3.93029	-0.803962	0.32757
H	-3.9647	0.99613	0.428319
C	6.86488	0.0619895	3.47789
C	6.57838	0.697189	2.1719
O	5.97014	1.75629	2.103
H	6.43367	0.684675	4.29163
H	7.96147	-0.0203654	3.63103
H	6.40902	-0.949706	3.51956
N	7.01642	0.0510007	1.08888
C	6.77643	0.522655	-0.252205
C	6.73966	-0.679499	-1.17689
O	7.06105	-1.79521	-0.77242
H	7.47417	-0.830717	1.15887
H	5.80226	0.993455	-0.296322
C	7.8767	1.51227	-0.694146
H	8.87515	1.02655	-0.659151
H	7.69565	1.89329	-1.72009
H	7.89073	2.3799	0.00109633
N	6.33583	-0.479359	-2.44688
C	6.26372	-1.56476	-3.39708
H	6.07585	0.429963	-2.75448
H	5.90976	-1.19881	-4.38603
H	5.55935	-2.35154	-3.04194
H	7.26473	-2.03407	-3.53443
