44
  This energy is 0 and Call times are: 16399
C	2.32869	2.42205	-0.907493
C	0.968393	1.84013	-0.953312
O	0.0310358	2.45927	-1.4375
H	2.30617	3.44349	-1.34572
H	3.03311	1.79504	-1.4935
H	2.68082	2.48961	0.143476
N	0.828906	0.616122	-0.438802
C	-0.441068	-0.0631156	-0.372759
C	-0.411384	-1.0071	0.814492
O	0.633572	-1.21429	1.42838
H	1.59292	0.141406	-0.0112581
H	-1.2246	0.661471	-0.18923
C	-0.718539	-0.842136	-1.67713
H	0.0794817	-1.59288	-1.86037
H	-1.6999	-1.35824	-1.64409
H	-0.727857	-0.132791	-2.53334
N	-1.56827	-1.59841	1.17225
C	-1.63766	-2.50761	2.2924
H	-2.40432	-1.41509	0.665804
H	-2.67415	-2.88842	2.42618
H	-1.32791	-1.99668	3.23276
H	-0.961548	-3.37877	2.134
C	10.7873	-1.7848	-0.547506
C	10.0627	-0.535145	-0.224166
O	10.6564	0.452971	0.185182
H	11.8704	-1.64575	-0.339201
H	10.6571	-2.03576	-1.6212
H	10.4058	-2.62063	0.0761422
N	8.73967	-0.553265	-0.402024
C	7.89434	0.572187	-0.0900537
C	6.52029	0.0442414	0.277146
O	6.23781	-1.14163	0.11707
H	8.26571	-1.37804	-0.696905
H	8.28671	1.08325	0.780282
C	7.79963	1.5403	-1.28965
H	7.38728	1.01918	-2.17985
H	7.16255	2.41813	-1.05715
H	8.81727	1.90784	-1.54586
N	5.63128	0.917729	0.789677
C	4.30129	0.505199	1.17325
H	5.87968	1.87247	0.915549
H	3.72217	1.36676	1.5727
H	4.34592	-0.282139	1.96026
H	3.7515	0.0882471	0.298588
