44
  This energy is -0.1195 and Call times are: 15443
C	-0.366945	2.45027	-2.44422
C	-0.703092	1.13296	-1.85869
O	-1.65496	0.482671	-2.26793
H	-1.10411	2.69798	-3.23864
H	0.648485	2.422	-2.89238
H	-0.403671	3.23742	-1.66183
N	0.0840118	0.705265	-0.868782
C	-0.142652	-0.536283	-0.17183
C	0.401486	-0.39392	1.23714
O	1.0691	0.587341	1.55828
H	0.83032	1.26437	-0.519083
H	-1.20827	-0.71062	-0.0899966
C	0.543979	-1.71174	-0.90126
H	1.63867	-1.53832	-0.976151
H	0.365207	-2.6755	-0.381895
H	0.136214	-1.79215	-1.93258
N	0.119257	-1.37361	2.11838
C	0.589798	-1.32148	3.48295
H	-0.425922	-2.15776	1.84097
H	0.25373	-2.21785	4.04934
H	0.199377	-0.414351	3.99867
H	1.70281	-1.28396	3.51376
C	4.93548	2.9105	1.90725
C	5.59723	1.99142	0.954084
O	6.6088	2.32445	0.352223
H	5.49144	3.87276	1.93576
H	4.93101	2.46772	2.92542
H	3.89114	3.10824	1.58579
N	5.02883	0.794301	0.792143
C	5.53255	-0.190676	-0.132327
C	4.3679	-1.04759	-0.591529
O	3.26505	-0.950205	-0.0567949
H	4.1825	0.552973	1.25833
H	5.92912	0.310003	-1.00678
C	6.61951	-1.06473	0.530825
H	6.21028	-1.58683	1.42188
H	7.02518	-1.8181	-0.175143
H	7.45804	-0.416038	0.866102
N	4.58585	-1.90694	-1.60643
C	3.53582	-2.75882	-2.11428
H	5.48398	-1.96852	-2.02909
H	3.91187	-3.39228	-2.94768
H	2.68448	-2.14885	-2.49432
H	3.14983	-3.42801	-1.31158
