44
  This energy is -5.1852 and Call times are: 7382
C	1.95912	-0.406091	2.84774
C	1.30951	-0.933608	1.62673
O	1.57829	-2.04709	1.19741
H	2.6812	-1.15809	3.23372
H	1.19736	-0.204761	3.62999
H	2.50667	0.531583	2.61525
N	0.426346	-0.129766	1.02987
C	-0.254431	-0.486492	-0.189906
C	-0.579402	0.790851	-0.941134
O	-0.41385	1.89001	-0.415636
H	0.248454	0.789899	1.36816
H	0.412695	-1.06728	-0.814613
C	-1.54423	-1.28118	0.110294
H	-2.23352	-0.681736	0.742415
H	-2.0703	-1.5737	-0.821483
H	-1.28331	-2.20751	0.667234
N	-1.04499	0.674446	-2.20038
C	-1.37597	1.83483	-2.9942
H	-1.16839	-0.223417	-2.60988
H	-1.7412	1.53193	-4.00022
H	-0.482815	2.48736	-3.12742
H	-2.17201	2.4362	-2.49839
C	9.47394	-2.82388	0.205157
C	8.8646	-1.70971	-0.555419
O	9.23636	-1.43926	-1.68903
H	10.2711	-3.29554	-0.409615
H	8.7056	-3.58853	0.445393
H	9.92376	-2.44366	1.14653
N	7.89949	-1.0262	0.0640715
C	7.24236	0.11066	-0.531145
C	6.78426	1.03016	0.585204
O	6.84727	0.673963	1.7603
H	7.63613	-1.23228	1.00217
H	7.95575	0.66202	-1.1309
C	6.04071	-0.335381	-1.39272
H	5.30352	-0.891963	-0.775616
H	5.5347	0.530001	-1.86768
H	6.3982	-1.01354	-2.19809
N	6.31715	2.24654	0.241357
C	5.86405	3.19106	1.23572
H	6.27769	2.51827	-0.714511
H	5.51822	4.13263	0.755013
H	6.68703	3.4409	1.94394
H	5.01881	2.76677	1.82452
