44
  This energy is -0.1427 and Call times are: 16004
C	0.992361	-3.06222	1.32314
C	0.25845	-1.7799	1.41345
O	-0.545365	-1.57253	2.31195
H	0.670283	-3.72893	2.15238
H	2.08503	-2.88464	1.40852
H	0.773639	-3.56099	0.355422
N	0.522293	-0.877119	0.465952
C	-0.144109	0.399451	0.396415
C	-0.177642	0.837008	-1.05582
O	0.452697	0.221778	-1.91365
H	1.14877	-1.0762	-0.282223
H	-1.17033	0.284944	0.722583
C	0.585164	1.45035	1.26187
H	1.63495	1.57587	0.920937
H	0.0737436	2.43412	1.22766
H	0.604722	1.10568	2.31883
N	-0.926545	1.91313	-1.36749
C	-1.02333	2.39946	-2.72406
H	-1.43276	2.39538	-0.660204
H	-1.68569	3.29155	-2.7757
H	-1.44105	1.61353	-3.39421
H	-0.0187894	2.68545	-3.11169
C	6.75115	1.55077	2.91468
C	5.89193	0.580624	2.19933
O	5.24402	-0.259937	2.80766
H	6.69697	1.35343	4.00737
H	6.40351	2.58691	2.71893
H	7.8055	1.44586	2.5824
N	5.86974	0.676535	0.867901
C	5.11506	-0.224167	0.0325849
C	5.81508	-0.322917	-1.30972
O	6.74904	0.42617	-1.58955
H	6.43431	1.33955	0.384658
H	5.12361	-1.2128	0.47434
C	3.66499	0.275607	-0.148421
H	3.65536	1.28542	-0.611278
H	3.0697	-0.416671	-0.77842
H	3.17475	0.347811	0.846963
N	5.38184	-1.26242	-2.17323
C	5.99067	-1.43394	-3.47172
H	4.62744	-1.86194	-1.9272
H	5.49476	-2.25624	-4.03307
H	7.07191	-1.68217	-3.36887
H	5.90667	-0.499068	-4.07181
