44
  This energy is -2.2338 and Call times are: 11430
C	-2.31571	1.41856	-2.17666
C	-1.46049	0.293623	-1.73592
O	-1.58405	-0.82293	-2.22013
H	-3.03026	1.0566	-2.94756
H	-1.69129	2.22482	-2.61576
H	-2.88964	1.82287	-1.31629
N	-0.560217	0.568126	-0.789069
C	0.313355	-0.432495	-0.228541
C	0.651135	-0.0229656	1.19264
O	0.333174	1.08467	1.62132
H	-0.499338	1.47211	-0.375585
H	-0.213254	-1.37722	-0.175482
C	1.59982	-0.576145	-1.07093
H	2.14589	0.390149	-1.11691
H	2.27452	-1.3535	-0.657369
H	1.32818	-0.868468	-2.10877
N	1.30083	-0.917302	1.96341
C	1.65907	-0.618045	3.33026
H	1.54603	-1.81001	1.60005
H	2.18649	-1.47942	3.79618
H	0.750117	-0.395083	3.93472
H	2.33004	0.270163	3.37529
C	5.41373	2.77499	2.01705
C	5.69403	1.33315	1.83352
O	6.00716	0.623733	2.77962
H	5.55515	3.04341	3.08654
H	4.36674	3.0015	1.72508
H	6.10903	3.38165	1.39931
N	5.58787	0.861656	0.589008
C	5.87119	-0.509894	0.246759
C	6.34362	-0.549877	-1.19435
O	6.27514	0.449334	-1.90751
H	5.37199	1.46002	-0.177289
H	6.68497	-0.871091	0.86313
C	4.61861	-1.39446	0.430702
H	3.78674	-1.03063	-0.209348
H	4.82763	-2.45548	0.183581
H	4.28591	-1.34374	1.49046
N	6.84528	-1.71234	-1.65588
C	7.32429	-1.84341	-3.01218
H	6.89631	-2.50883	-1.06251
H	7.69766	-2.8743	-3.19949
H	8.15676	-1.12863	-3.20553
H	6.50848	-1.62816	-3.73968
