44
  This energy is -2.0379 and Call times are: 13249
C	2.46717	-0.527176	-2.39747
C	1.12144	-0.779676	-1.83498
O	0.273681	-1.39011	-2.47145
H	2.52235	-0.952698	-3.42302
H	3.24258	-1.00962	-1.76601
H	2.66096	0.564936	-2.45064
N	0.892243	-0.304849	-0.608448
C	-0.381902	-0.434455	0.0536065
C	-0.539708	0.733746	1.00857
O	0.400418	1.49285	1.23582
H	1.57874	0.22556	-0.119306
H	-1.17487	-0.360663	-0.680138
C	-0.473279	-1.77396	0.816904
H	0.333654	-1.84561	1.57701
H	-1.45509	-1.89181	1.31957
H	-0.347163	-2.61433	0.0998121
N	-1.74402	0.910301	1.58692
C	-1.98946	1.99789	2.50511
H	-2.49372	0.28803	1.38741
H	-3.039	1.97302	2.87264
H	-1.81571	2.97922	2.00704
H	-1.30826	1.93149	3.38414
C	8.95461	-0.737504	-2.40556
C	7.55876	-0.454686	-2.00209
O	6.69158	-0.232299	-2.83573
H	9.03382	-0.688513	-3.51334
H	9.25217	-1.75269	-2.06852
H	9.64087	0.0147613	-1.9626
N	7.30844	-0.454905	-0.690705
C	6.00876	-0.154481	-0.143765
C	6.20328	0.442693	1.23722
O	7.31056	0.446004	1.77167
H	8.03334	-0.597219	-0.0227883
H	5.52886	0.598668	-0.756206
C	5.13567	-1.42605	-0.0657691
H	5.62262	-2.1951	0.571004
H	4.12749	-1.20531	0.340891
H	5.01328	-1.85035	-1.08622
N	5.1247	0.972934	1.84675
C	5.21492	1.5684	3.15956
H	4.23793	0.964559	1.3966
H	4.22237	1.94783	3.48834
H	5.93228	2.42085	3.15575
H	5.56999	0.821744	3.90627
