44
  This energy is 3.2386e-320 and Call times are: 10588
C	-3.06217	1.40561	0.871812
C	-2.14683	0.782074	-0.110275
O	-2.55081	0.405505	-1.20179
H	-4.09007	1.43401	0.449328
H	-2.73602	2.44346	1.09369
H	-3.07605	0.813886	1.81137
N	-0.871604	0.655578	0.264128
C	0.127578	0.0301342	-0.565941
C	1.18348	-0.575211	0.3397
O	1.18385	-0.345767	1.54762
H	-0.566288	0.929567	1.17164
H	-0.325935	-0.781999	-1.12037
C	0.764139	1.05501	-1.53013
H	1.23871	1.88298	-0.961538
H	1.5254	0.582705	-2.18429
H	-0.0278326	1.49088	-2.17755
N	2.10875	-1.37497	-0.226232
C	3.14895	-1.99966	0.557307
H	2.08961	-1.55203	-1.20468
H	3.81013	-2.61828	-0.0887311
H	2.70872	-2.65819	1.34076
H	3.77461	-1.23012	1.06477
C	5.4602	-3.1096	-1.40262
C	5.04248	-1.87441	-0.701926
O	3.85963	-1.60247	-0.549221
H	4.55739	-3.66406	-1.7393
H	6.04595	-3.75846	-0.718059
H	6.07783	-2.85598	-2.28991
N	6.02232	-1.08527	-0.255193
C	5.77274	0.170555	0.407509
C	6.95307	1.08674	0.144823
O	7.97357	0.660767	-0.392608
H	6.98028	-1.29966	-0.423102
H	4.89864	0.637355	-0.0291307
C	5.57508	-0.0362636	1.9252
H	6.4757	-0.505496	2.37549
H	5.36839	0.921779	2.44478
H	4.7114	-0.716005	2.09355
N	6.83659	2.37778	0.513135
C	7.90592	3.3246	0.2981
H	6.00144	2.70469	0.942933
H	7.61831	4.33337	0.668096
H	8.14729	3.40484	-0.786605
H	8.82841	3.00413	0.834252
