44
  This energy is -3.415 and Call times are: 10713
C	0.175383	-3.46722	0.24555
C	-0.125499	-2.22748	-0.505221
O	-0.343864	-2.25343	-1.70857
H	0.177603	-4.32987	-0.455669
H	-0.596451	-3.63956	1.02486
H	1.17407	-3.39136	0.725093
N	-0.141359	-1.09485	0.201376
C	-0.37628	0.19561	-0.397019
C	0.339833	1.24114	0.437015
O	0.842771	0.946836	1.51968
H	0.0786832	-1.08455	1.17263
H	0.0631926	0.215878	-1.38651
C	-1.88804	0.503159	-0.469472
H	-2.33731	0.492885	0.546442
H	-2.08261	1.48821	-0.940997
H	-2.3929	-0.278816	-1.07773
N	0.409856	2.49349	-0.0556679
C	1.07612	3.55314	0.665031
H	0.000392935	2.71137	-0.935406
H	1.0265	4.50749	0.0958427
H	2.14817	3.30042	0.832711
H	0.599389	3.71244	1.65926
C	8.21361	1.91763	1.5382
C	7.1346	0.905131	1.57997
O	6.95092	0.216463	2.57416
H	8.77098	1.90027	2.49992
H	7.78273	2.93022	1.39077
H	8.91836	1.69188	0.71029
N	6.3862	0.78972	0.480442
C	5.32703	-0.180317	0.355038
C	5.18358	-0.536928	-1.11255
O	5.78898	0.0948808	-1.97627
H	6.57404	1.32885	-0.335596
H	5.60677	-1.08467	0.880889
C	3.99821	0.379076	0.908735
H	3.70537	1.30101	0.362536
H	3.17793	-0.363576	0.830519
H	4.12878	0.640604	1.98153
N	4.37937	-1.57089	-1.42906
C	4.18581	-1.98621	-2.79881
H	3.9011	-2.07259	-0.715874
H	3.49033	-2.85262	-2.85252
H	5.15514	-2.28585	-3.25912
H	3.75817	-1.15498	-3.40489
