44
  This energy is -0.0322 and Call times are: 15415
C	-1.02824	-0.50994	3.28563
C	-1.20561	0.0855959	1.94212
O	-2.25447	0.628829	1.62399
H	-1.96566	-0.384124	3.86983
H	-0.199305	-0.00277091	3.82266
H	-0.802686	-1.59363	3.19712
N	-0.165916	-0.00737477	1.1098
C	-0.202981	0.486456	-0.2442
C	0.749061	-0.349431	-1.07875
O	1.50954	-1.1565	-0.547689
H	0.666591	-0.488579	1.36911
H	-1.1971	0.344074	-0.649285
C	0.195585	1.97757	-0.298701
H	1.21947	2.12273	0.107036
H	0.157517	2.37324	-1.33432
H	-0.509639	2.56899	0.325176
N	0.722567	-0.179953	-2.41538
C	1.58852	-0.93535	-3.29042
H	0.097393	0.474927	-2.82692
H	1.41694	-0.653509	-4.35265
H	1.39928	-2.028	-3.18277
H	2.65837	-0.744476	-3.04523
C	6.41201	-0.215879	-1.81456
C	5.06994	0.360563	-1.57432
O	4.69221	1.35698	-2.17506
H	6.94838	0.40305	-2.56629
H	6.3196	-1.25217	-2.20225
H	6.99889	-0.225034	-0.871925
N	4.30866	-0.263726	-0.672599
C	2.99654	0.20372	-0.30058
C	2.72867	-0.227241	1.12914
O	3.49053	-0.999964	1.70722
H	4.64567	-1.04959	-0.162006
H	2.98459	1.28638	-0.318751
C	1.91864	-0.365773	-1.24876
H	1.92342	-1.47633	-1.22253
H	0.905421	-0.00206921	-0.981136
H	2.13912	-0.0444751	-2.29015
N	1.63591	0.273073	1.73869
C	1.30331	-0.0761377	3.10016
H	1.03365	0.90021	1.25594
H	0.369952	0.436869	3.42094
H	2.12297	0.221736	3.7935
H	1.15082	-1.17538	3.19795
