44
  This energy is 0 and Call times are: 16735
C	0.85031	1.7326	-2.89616
C	-0.146459	1.22163	-1.92843
O	-1.31154	1.59273	-1.9643
H	0.361076	2.46377	-3.57582
H	1.2591	0.896688	-3.50186
H	1.67956	2.23996	-2.35948
N	0.298542	0.344919	-1.02525
C	-0.54255	-0.207513	0.00719229
C	0.332257	-0.544727	1.1999
O	1.55782	-0.491107	1.11722
H	1.25866	0.0836535	-0.983006
H	-1.25229	0.543979	0.329933
C	-1.27969	-1.46749	-0.497118
H	-0.55189	-2.24278	-0.818477
H	-1.94123	-1.89427	0.284379
H	-1.90738	-1.19885	-1.37472
N	-0.282287	-0.894377	2.34712
C	0.468063	-1.22688	3.53565
H	-1.27505	-0.928078	2.39571
H	-0.216434	-1.48678	4.37299
H	1.10068	-0.366877	3.85418
H	1.13782	-2.09694	3.34706
C	24.5334	-3.47646	0.115701
C	24.0389	-2.14168	0.521994
O	22.9892	-2.01583	1.13727
H	23.8069	-4.25216	0.441939
H	25.5157	-3.68158	0.590745
H	24.6396	-3.52535	-0.988563
N	24.7973	-1.09804	0.178415
C	24.4264	0.265128	0.466019
C	25.0417	1.15686	-0.595942
O	25.8534	0.70741	-1.40274
H	25.6285	-1.21321	-0.358011
H	23.351	0.366575	0.388922
C	24.9105	0.683784	1.87159
H	26.0147	0.589928	1.94783
H	24.6188	1.72707	2.11039
H	24.454	0.0129372	2.63185
N	24.6601	2.44897	-0.625286
C	25.1882	3.37102	-1.60365
H	23.9992	2.79317	0.0332651
H	24.7523	4.38482	-1.464
H	24.9506	3.02665	-2.63626
H	26.2957	3.44961	-1.51214
