44
  This energy is -0.5828 and Call times are: 12086
C	-2.9879	-1.62941	0.728102
C	-2.0646	-0.479965	0.860081
O	-2.42637	0.565941	1.38125
H	-3.98061	-1.35289	1.14516
H	-2.5936	-2.50328	1.28812
H	-3.11053	-1.9009	-0.341641
N	-0.830755	-0.6517	0.379963
C	0.165947	0.389856	0.397426
C	1.10841	0.162241	-0.769413
O	1.04926	-0.870084	-1.43464
H	-0.563552	-1.49459	-0.0783028
H	-0.315187	1.34736	0.241424
C	0.944653	0.385967	1.73116
H	1.4471	-0.592506	1.88664
H	1.70577	1.19234	1.76243
H	0.23423	0.546189	2.57138
N	2.00036	1.13232	-1.05118
C	2.93353	1.00625	-2.14638
H	2.03024	1.96228	-0.504054
H	3.58271	1.90682	-2.21555
H	2.39153	0.889863	-3.1128
H	3.58546	0.113741	-2.00653
C	5.28042	-2.72218	2.16522
C	5.14573	-1.27558	1.88174
O	4.64628	-0.514272	2.69866
H	4.85484	-2.94099	3.16865
H	6.35119	-3.01565	2.1572
H	4.72939	-3.31417	1.4043
N	5.59442	-0.859043	0.69533
C	5.49292	0.511432	0.259381
C	5.4067	0.520815	-1.25523
O	5.5928	-0.507513	-1.90301
H	5.96105	-1.49737	0.0245284
H	4.57284	0.939357	0.637497
C	6.70943	1.33402	0.737593
H	7.65283	0.901586	0.341304
H	6.63621	2.39435	0.419998
H	6.75731	1.30664	1.84813
N	5.11197	1.68975	-1.85751
C	5.00343	1.79365	-3.29403
H	4.96072	2.51022	-1.31619
H	4.75451	2.83505	-3.59531
H	4.20521	1.11759	-3.67754
H	5.96279	1.50694	-3.78246
