44
  This energy is -1.3419 and Call times are: 14715
C	-2.1712	0.0485777	2.71959
C	-1.49703	0.707454	1.57832
O	-1.84328	1.81543	1.19244
H	-2.98613	0.705601	3.09388
H	-1.44638	-0.128811	3.54173
H	-2.60939	-0.919771	2.39805
N	-0.503318	0.026674	1.0026
C	0.218202	0.518619	-0.144557
C	0.713283	-0.674948	-0.939445
O	0.620491	-1.81473	-0.487778
H	-0.260073	-0.891524	1.30195
H	-0.45953	1.07226	-0.782357
C	1.40294	1.40938	0.289246
H	2.104	0.838785	0.934983
H	1.95816	1.80562	-0.585536
H	1.01803	2.27188	0.87601
N	1.24684	-0.439337	-2.15428
C	1.7394	-1.51351	-2.98478
H	1.30959	0.489405	-2.50439
H	2.13872	-1.11729	-3.94435
H	0.923967	-2.23649	-3.2164
H	2.55557	-2.06782	-2.46734
C	6.86126	-2.87356	-0.094291
C	5.58442	-2.17553	0.177014
O	4.55544	-2.80011	0.394979
H	6.69029	-3.97189	-0.0769432
H	7.61157	-2.61433	0.681965
H	7.24961	-2.58607	-1.09409
N	5.62382	-0.841087	0.167009
C	4.45386	-0.0237688	0.371306
C	4.65632	1.28524	-0.368342
O	5.74594	1.56686	-0.863431
H	6.46023	-0.347015	-0.0524514
H	3.5945	-0.513657	-0.0692949
C	4.21753	0.235125	1.87542
H	5.09457	0.747157	2.32561
H	3.31153	0.851878	2.0466
H	4.0799	-0.736685	2.3979
N	3.60065	2.1169	-0.467936
C	3.69748	3.38197	-1.15816
H	2.72595	1.86973	-0.0643476
H	2.7244	3.92013	-1.13126
H	3.98297	3.2271	-2.2239
H	4.47	4.03003	-0.684497
