44
  This energy is -2.1782 and Call times are: 10470
C	0.837662	2.93705	1.66875
C	0.812783	1.46091	1.56134
O	1.4679	0.759907	2.32017
H	1.5249	3.23398	2.49059
H	-0.179256	3.32157	1.89407
H	1.19945	3.38383	0.718703
N	0.0440101	0.948915	0.597381
C	-0.0489683	-0.466971	0.342073
C	-0.367166	-0.662547	-1.12832
O	-0.661156	0.294652	-1.8418
H	-0.45134	1.53373	-0.0386144
H	0.913375	-0.927413	0.527872
C	-1.13896	-1.11598	1.22295
H	-2.12832	-0.651161	1.02509
H	-1.21081	-2.20865	1.04563
H	-0.889764	-0.953667	2.29435
N	-0.307029	-1.9159	-1.61976
C	-0.588263	-2.19774	-3.00816
H	-0.0633122	-2.67697	-1.02777
H	-0.485591	-3.28537	-3.21729
H	0.115985	-1.64528	-3.67156
H	-1.62538	-1.88648	-3.27016
C	4.6297	1.83169	1.62951
C	6.01914	1.33524	1.51048
O	6.91441	1.78524	2.2122
H	4.59015	2.63115	2.40098
H	3.95282	1.00558	1.93301
H	4.28881	2.25117	0.659503
N	6.23261	0.381195	0.601302
C	7.53873	-0.170654	0.340393
C	7.57713	-0.632458	-1.10419
O	6.55361	-0.656764	-1.78502
H	5.50172	0.0540275	0.00917196
H	8.28375	0.607495	0.450194
C	7.84068	-1.34787	1.2934
H	7.08263	-2.15102	1.17361
H	8.84924	-1.7725	1.11171
H	7.79935	-0.988713	2.34489
N	8.7695	-1.00398	-1.61038
C	8.90399	-1.45249	-2.97674
H	9.58723	-0.973569	-1.04517
H	9.96155	-1.71249	-3.20302
H	8.57955	-0.656236	-3.68525
H	8.2746	-2.35361	-3.15839
