44
  This energy is -2.7578 and Call times are: 13081
C	-0.436602	-1.21062	3.23365
C	-0.375539	-1.40305	1.76723
O	-0.345594	-2.52319	1.27651
H	-0.430018	-2.20288	3.73488
H	-1.36837	-0.674187	3.51077
H	0.442488	-0.627228	3.57999
N	-0.353099	-0.294466	1.02365
C	-0.25122	-0.320582	-0.414234
C	0.438269	0.954162	-0.862775
O	0.656392	1.8657	-0.0670132
H	-0.336678	0.610433	1.43928
H	0.377952	-1.14983	-0.712773
C	-1.64725	-0.438597	-1.06417
H	-2.28967	0.417444	-0.766626
H	-1.58121	-0.47364	-2.17093
H	-2.13641	-1.37433	-0.715646
N	0.807037	1.04387	-2.15583
C	1.47372	2.21654	-2.67212
H	0.625624	0.294176	-2.78362
H	1.69473	2.09815	-3.7558
H	2.43447	2.39039	-2.13546
H	0.836392	3.12081	-2.54079
C	8.85721	-2.20712	-1.38497
C	7.69524	-1.91154	-0.516873
O	7.01357	-2.81043	-0.0438641
H	8.9497	-3.30756	-1.51275
H	9.78906	-1.81947	-0.922218
H	8.71814	-1.73993	-2.3827
N	7.43908	-0.621598	-0.287021
C	6.31759	-0.176736	0.502218
C	5.90435	1.19583	0.00535774
O	6.59682	1.80648	-0.806613
H	7.97835	0.0996351	-0.71231
H	5.48007	-0.843886	0.3407
C	6.68506	-0.121939	2.00129
H	7.53744	0.570449	2.1689
H	5.82551	0.205962	2.62111
H	6.99184	-1.13518	2.34122
N	4.75297	1.7117	0.478871
C	4.27679	3.00901	0.0588452
H	4.20421	1.20077	1.13223
H	3.31439	3.25556	0.559089
H	4.11436	3.02989	-1.04318
H	5.01763	3.80106	0.313678
