44
  This energy is -2.9691 and Call times are: 11726
C	-2.52428	-1.93907	1.40737
C	-1.94307	-1.17386	0.281409
O	-2.42605	-1.23394	-0.840882
H	-3.39093	-2.53093	1.04064
H	-2.87275	-1.24596	2.20166
H	-1.76744	-2.63364	1.8291
N	-0.872939	-0.426409	0.561598
C	-0.172162	0.339937	-0.438494
C	1.27861	0.460348	-0.0114934
O	1.6391	0.0925602	1.10497
H	-0.466714	-0.419753	1.47089
H	-0.188328	-0.198873	-1.37767
C	-0.80529	1.73867	-0.605625
H	-0.77942	2.29587	0.355052
H	-0.283122	2.33347	-1.38285
H	-1.86866	1.62614	-0.910488
N	2.1514	0.974414	-0.900308
C	3.55306	1.12216	-0.584528
H	1.84152	1.26264	-1.80029
H	4.10545	1.56249	-1.44371
H	4.00799	0.133791	-0.344859
H	3.68901	1.78796	0.298286
C	3.45982	0.655054	1.35016
C	4.85905	0.18762	1.47193
O	5.36401	-0.0202117	2.56657
H	3.02468	0.780057	2.36548
H	2.85542	-0.0884063	0.789167
H	3.42713	1.63155	0.822468
N	5.52744	0.0115283	0.329727
C	6.90909	-0.398248	0.28868
C	7.53125	0.162119	-0.976422
O	6.83495	0.696787	-1.83724
H	5.11586	0.224121	-0.551897
H	7.43618	0.0380735	1.12798
C	7.02894	-1.93779	0.315024
H	6.49726	-2.38531	-0.551626
H	8.08854	-2.26563	0.297813
H	6.56021	-2.32652	1.24535
N	8.86779	0.0592012	-1.11454
C	9.5485	0.568685	-2.28211
H	9.41479	-0.373088	-0.405318
H	10.6437	0.389056	-2.20844
H	9.3795	1.66479	-2.38824
H	9.17257	0.0704703	-3.20493
