44
  This energy is 0 and Call times are: 18079
C	2.00025	-2.60861	1.14319
C	0.960449	-1.57588	1.3516
O	0.279519	-1.55924	2.3677
H	2.00934	-3.30136	2.01261
H	2.99933	-2.13288	1.05228
H	1.78285	-3.19021	0.222552
N	0.811961	-0.677704	0.375069
C	-0.186938	0.361131	0.414864
C	-0.565232	0.708474	-1.01265
O	0.0715176	0.254123	-1.96125
H	1.34573	-0.728741	-0.464189
H	-1.07711	-0.0176944	0.901393
C	0.344266	1.60927	1.15324
H	1.25141	2.00453	0.648372
H	-0.420507	2.41127	1.20269
H	0.622323	1.32997	2.19297
N	-1.62371	1.52148	-1.19884
C	-2.0608	1.90239	-2.52173
H	-2.12893	1.87581	-0.418921
H	-2.9457	2.57395	-2.46536
H	-2.34062	1.00317	-3.11704
H	-1.24857	2.4372	-3.06525
C	112.587	2.67907	-2.18291
C	112.929	2.12038	-0.855356
O	113.45	2.81295	0.0078496
H	112.895	3.74668	-2.22222
H	111.493	2.61379	-2.35545
H	113.121	2.12178	-2.98142
N	112.639	0.831588	-0.661538
C	112.951	0.136664	0.562518
C	113.166	-1.32851	0.232987
O	112.906	-1.76712	-0.885838
H	112.253	0.2704	-1.38777
H	113.883	0.517531	0.962051
C	111.813	0.298301	1.5941
H	110.86	-0.101877	1.18872
H	112.048	-0.220792	2.54599
H	111.668	1.3785	1.81419
N	113.658	-2.12238	1.20476
C	113.9	-3.52863	0.981546
H	113.866	-1.74832	2.10247
H	114.304	-4.00861	1.89993
H	114.635	-3.67442	0.157246
H	112.957	-4.05017	0.699208
