44
  This energy is -1.1081 and Call times are: 13643
C	-0.0435559	-0.0168004	3.48001
C	-0.366165	0.604255	2.17566
O	-1.12261	1.56269	2.10075
H	-0.597295	0.512388	4.28575
H	1.0455	0.0605726	3.68181
H	-0.344189	-1.08578	3.47967
N	0.209283	0.060219	1.10082
C	-0.0414105	0.527481	-0.23984
C	0.141502	-0.64103	-1.18993
O	0.608799	-1.70724	-0.794275
H	0.790465	-0.745264	1.17357
H	-1.07233	0.849305	-0.319053
C	0.9161	1.68134	-0.610004
H	1.97361	1.34863	-0.539098
H	0.723811	2.05915	-1.63509
H	0.770548	2.52207	0.10297
N	-0.233412	-0.468461	-2.47278
C	-0.101807	-1.52613	-3.44756
H	-0.61328	0.400193	-2.77313
H	-0.464215	-1.18992	-4.44398
H	-0.694912	-2.41826	-3.14164
H	0.9631	-1.83751	-3.54832
C	9.90074	-0.385678	-2.62644
C	9.25583	-0.86227	-1.38221
O	9.40785	-2.01109	-0.990385
H	10.4752	-1.21966	-3.0851
H	10.5972	0.449087	-2.40097
H	9.13099	-0.0398801	-3.34822
N	8.50664	0.0256394	-0.724397
C	7.78209	-0.302437	0.478078
C	6.56178	0.595628	0.554891
O	6.41912	1.53264	-0.228279
H	8.3593	0.945104	-1.07757
H	7.42755	-1.32363	0.414126
C	8.67165	-0.115187	1.72662
H	9.02704	0.934853	1.79844
H	8.12938	-0.377944	2.65798
H	9.56226	-0.775876	1.64514
N	5.6433	0.322791	1.5025
C	4.44731	1.11949	1.64761
H	5.77435	-0.442179	2.12437
H	3.81841	0.736521	2.48131
H	3.84259	1.09415	0.712221
H	4.70618	2.18151	1.86267
