44
  This energy is 0 and Call times are: 16875
C	2.05884	2.46732	-1.33649
C	1.80517	1.07399	-0.905865
O	2.58568	0.173763	-1.18299
H	3.00383	2.50487	-1.92084
H	2.1574	3.12966	-0.450865
H	1.22601	2.8277	-1.97649
N	0.686652	0.862779	-0.208231
C	0.282788	-0.445788	0.242442
C	-1.23137	-0.468058	0.333958
O	-1.88533	0.565182	0.205625
H	0.0406926	1.5985	-0.0256967
H	0.572187	-1.18302	-0.496051
C	0.913017	-0.776025	1.61321
H	0.607935	-0.0259203	2.37367
H	0.620697	-1.78676	1.96463
H	2.02098	-0.746162	1.52449
N	-1.82723	-1.65707	0.551261
C	-3.26342	-1.77643	0.647675
H	-1.28143	-2.48275	0.648366
H	-3.55898	-2.83351	0.827822
H	-3.75024	-1.43192	-0.293384
H	-3.65407	-1.15521	1.4859
C	32.1017	-1.85017	-1.71399
C	33.5084	-1.51367	-1.39941
O	34.4293	-2.22391	-1.77893
H	32.0715	-2.79923	-2.29212
H	31.6423	-1.04354	-2.32312
H	31.5209	-1.98171	-0.77673
N	33.7075	-0.404177	-0.684014
C	35.0167	0.0296755	-0.263905
C	34.8638	0.813763	1.02583
O	33.7508	1.12458	1.44576
H	32.9454	0.141502	-0.347467
H	35.6268	-0.837454	-0.0438554
C	35.6846	0.90012	-1.35086
H	35.0642	1.79531	-1.56944
H	36.6989	1.22899	-1.045
H	35.779	0.308856	-2.28779
N	35.9869	1.14618	1.69233
C	35.9393	1.88707	2.93128
H	36.8782	0.882199	1.33882
H	36.965	2.06192	3.32456
H	35.3593	1.32825	3.70109
H	35.4485	2.87563	2.77951
