44
  This energy is 0.1159 and Call times are: 5319
C	-3.14386	1.27654	0.774121
C	-2.16724	0.708833	-0.182469
O	-2.51239	0.344278	-1.29799
H	-4.15395	1.27893	0.309807
H	-2.86459	2.31963	1.0324
H	-3.17492	0.662632	1.69892
N	-0.904697	0.618233	0.241972
C	0.149483	0.0479605	-0.559311
C	1.18849	-0.541304	0.375989
O	1.13114	-0.340625	1.58766
H	-0.646852	0.881198	1.1673
H	-0.251451	-0.766208	-1.15008
C	0.787736	1.11701	-1.47309
H	1.20855	1.9474	-0.866948
H	1.59164	0.687252	-2.1052
H	0.00778403	1.54008	-2.1432
N	2.16432	-1.29457	-0.168406
C	3.19335	-1.90082	0.643845
H	2.19164	-1.449	-1.15048
H	3.90224	-2.48047	0.0124201
H	2.74536	-2.59271	1.39342
H	3.76962	-1.12208	1.19394
C	8.14673	1.64928	-2.99573
C	7.22354	1.19145	-1.93306
O	6.07314	1.60308	-1.87338
H	7.62385	2.38514	-3.64455
H	8.47131	0.788662	-3.6176
H	9.03724	2.1363	-2.54531
N	7.71739	0.315723	-1.05465
C	6.95354	-0.187912	0.0595428
C	7.91934	-0.534706	1.17692
O	9.13375	-0.526218	0.984955
H	8.66805	0.0212497	-1.09211
H	6.30128	0.594002	0.428043
C	6.13211	-1.42966	-0.351026
H	6.80167	-2.23597	-0.719257
H	5.52886	-1.81861	0.494738
H	5.43809	-1.15455	-1.17503
N	7.39811	-0.841728	2.38111
C	8.2398	-1.17946	3.50523
H	6.41307	-0.839213	2.5181
H	7.62433	-1.39985	4.40515
H	8.92707	-0.336969	3.74843
H	8.86022	-2.07603	3.27635
