44
  This energy is -1.883 and Call times are: 11990
C	-3.42891	0.169875	-0.571306
C	-2.07782	-0.341804	-0.893598
O	-1.92208	-1.2683	-1.67702
H	-4.1883	-0.4241	-1.12485
H	-3.5166	1.23501	-0.872211
H	-3.62373	0.0764469	0.517918
N	-1.05417	0.260055	-0.28345
C	0.31498	-0.154352	-0.463073
C	1.08232	0.187814	0.800125
O	0.568031	0.87047	1.68398
H	-1.19962	0.985821	0.382863
H	0.350093	-1.23029	-0.580359
C	0.946975	0.544712	-1.68665
H	0.92073	1.64826	-1.56206
H	1.99701	0.223391	-1.84379
H	0.364717	0.286622	-2.59808
N	2.33706	-0.289391	0.918136
C	3.14145	-0.0198775	2.08711
H	2.7345	-0.843407	0.194134
H	4.14135	-0.498402	1.99529
H	2.64674	-0.414876	3.00391
H	3.28804	1.07659	2.21909
C	5.86895	3.02441	1.69233
C	5.62705	1.56427	1.66728
O	5.6072	0.90813	2.69952
H	6.03036	3.35199	2.74233
H	4.99195	3.56477	1.27806
H	6.77177	3.27301	1.09552
N	5.43688	1.01476	0.465506
C	5.2327	-0.399948	0.277193
C	5.74799	-0.772997	-1.10008
O	6.08488	0.0951564	-1.9029
H	5.49663	1.55517	-0.368907
H	5.82418	-0.945784	1.00165
C	3.73811	-0.764574	0.41322
H	3.13217	-0.212813	-0.336741
H	3.56961	-1.85335	0.284009
H	3.38051	-0.475545	1.4256
N	5.82933	-2.08348	-1.40343
C	6.313	-2.53342	-2.68788
H	5.55593	-2.7713	-0.739179
H	6.30474	-3.64428	-2.74408
H	7.35599	-2.18156	-2.86007
H	5.67442	-2.13581	-3.50962
