44
  This energy is 0 and Call times are: 17379
C	-1.62389	-2.53401	-1.74769
C	-0.730869	-2.06301	-0.665192
O	-0.366859	-2.81584	0.227643
H	-1.87766	-3.6026	-1.57564
H	-1.11674	-2.43887	-2.73079
H	-2.56139	-1.93894	-1.75649
N	-0.354301	-0.783386	-0.721121
C	0.477759	-0.169625	0.283634
C	0.141567	1.30876	0.337635
O	-0.592401	1.81896	-0.50658
H	-0.691855	-0.172392	-1.43148
H	0.23781	-0.590575	1.25206
C	1.97419	-0.373173	-0.0396392
H	2.22315	0.0677993	-1.02837
H	2.62522	0.0829906	0.734047
H	2.1957	-1.46197	-0.0820132
N	0.668135	2.03337	1.34446
C	0.399381	3.44602	1.48007
H	1.25648	1.60192	2.0203
H	0.921942	3.86214	2.36944
H	-0.693324	3.62836	1.59846
H	0.746169	4.00045	0.578133
C	64.7695	0.895731	2.47182
C	65.425	1.11375	1.16265
O	64.9899	1.9333	0.365533
H	63.8794	1.55695	2.55154
H	65.4722	1.13793	3.29667
H	64.4415	-0.161123	2.56426
N	66.5039	0.369711	0.907911
C	67.2229	0.438285	-0.339836
C	67.8651	-0.913135	-0.590573
O	67.8639	-1.78206	0.279297
H	66.8219	-0.322223	1.54973
H	66.5227	0.617293	-1.14624
C	68.296	1.54826	-0.297942
H	69.0207	1.35943	0.522543
H	68.8472	1.62031	-1.25787
H	67.8044	2.52685	-0.105446
N	68.4249	-1.12502	-1.79791
C	69.0545	-2.38205	-2.12905
H	68.4123	-0.41121	-2.49029
H	69.4544	-2.36029	-3.16677
H	68.3237	-3.21954	-2.05255
H	69.8976	-2.59487	-1.4326
