44
  This energy is 0 and Call times are: 17911
C	0.886407	0.296759	3.35245
C	0.388588	-0.48857	2.20068
O	0.274209	-1.70474	2.26584
H	1.12543	-0.392606	4.19121
H	0.110809	1.01655	3.68874
H	1.8063	0.850482	3.06912
N	0.0786707	0.202112	1.101
C	-0.37739	-0.426811	-0.113506
C	0.0344376	0.447935	-1.2826
O	0.503216	1.56913	-1.09581
H	0.21591	1.18719	1.04951
H	0.122837	-1.37991	-0.231847
C	-1.90978	-0.618205	-0.0938631
H	-2.42372	0.360382	0.0169318
H	-2.27163	-1.11416	-1.01778
H	-2.18905	-1.25461	0.774094
N	-0.124616	-0.0518217	-2.52396
C	0.2444	0.705956	-3.69689
H	-0.501799	-0.962693	-2.65479
H	0.037817	0.124073	-4.62207
H	1.32944	0.958018	-3.67635
H	-0.330532	1.65894	-3.7461
C	100.333	-1.55096	1.43193
C	101.791	-1.44065	1.20149
O	102.587	-2.09762	1.85801
H	100.145	-2.27088	2.25794
H	99.827	-1.91724	0.513966
H	99.9143	-0.562135	1.71491
N	102.178	-0.590229	0.248058
C	103.565	-0.343214	-0.0617186
C	103.684	1.06971	-0.601075
O	102.681	1.73064	-0.863535
H	101.521	-0.0321264	-0.249785
H	104.148	-0.391264	0.849149
C	104.089	-1.36365	-1.09552
H	103.497	-1.30743	-2.03401
H	105.159	-1.19255	-1.33197
H	103.985	-2.39086	-0.68292
N	104.923	1.57101	-0.771779
C	105.135	2.9083	-1.27478
H	105.723	1.02243	-0.549932
H	106.222	3.13511	-1.34354
H	104.662	3.6603	-0.602504
H	104.688	3.02218	-2.28886
