44
  This energy is 0.1446 and Call times are: 2451
C	-2.5984	-2.01867	1.13401
C	-2.09078	-0.836605	0.401767
O	-2.82572	-0.173614	-0.317055
H	-3.67429	-2.16454	0.895158
H	-2.49072	-1.86617	2.22849
H	-2.03655	-2.92715	0.830548
N	-0.799069	-0.544023	0.569883
C	-0.151317	0.550002	-0.109886
C	1.31466	0.199013	-0.280977
O	1.79444	-0.788775	0.272014
H	-0.203988	-1.11718	1.12597
H	-0.575328	0.656213	-1.10063
C	-0.304076	1.86337	0.68822
H	0.140152	1.7583	1.70097
H	0.178632	2.71612	0.168281
H	-1.38467	2.09639	0.808118
N	2.06252	1.00151	-1.06375
C	3.46558	0.743266	-1.28934
H	1.65546	1.79381	-1.50605
H	3.90439	1.51414	-1.96048
H	3.61021	-0.25558	-1.76122
H	4.02708	0.755097	-0.327198
C	2.31121	1.58201	-1.70534
C	3.74616	1.27829	-1.50576
O	4.58064	1.58325	-2.34663
H	2.17427	2.07731	-2.69113
H	1.94977	2.26398	-0.907196
H	1.71573	0.644891	-1.68821
N	4.06883	0.657659	-0.368623
C	5.41762	0.258453	-0.0524357
C	5.35119	-0.9574	0.852474
O	4.27977	-1.33413	1.32347
H	3.37326	0.379311	0.287543
H	5.92325	-0.0431099	-0.961289
C	6.1851	1.40664	0.63884
H	5.67251	1.70927	1.57676
H	7.22937	1.11629	0.874918
H	6.21436	2.28827	-0.0380748
N	6.50258	-1.60822	1.11081
C	6.53597	-2.77859	1.95656
H	7.35892	-1.29066	0.717222
H	7.57349	-3.16936	2.04646
H	5.8928	-3.5854	1.53625
H	6.16262	-2.5363	2.97785
