44
  This energy is -0.0878 and Call times are: 13305
C	-3.42011	-0.396964	-0.507872
C	-2.26325	0.325277	0.0676097
O	-2.39547	1.431	0.573883
H	-4.33236	0.230141	-0.405782
H	-3.58007	-1.35446	0.0309776
H	-3.24493	-0.603854	-1.58472
N	-1.0828	-0.294575	-0.00100585
C	0.140413	0.300104	0.477175
C	1.29	-0.263387	-0.336749
O	1.11216	-1.19962	-1.11364
H	-0.983916	-1.17661	-0.452775
H	0.111987	1.36786	0.299044
C	0.345851	0.00697127	1.97954
H	0.385643	-1.08819	2.16141
H	1.27748	0.47131	2.36293
H	-0.510828	0.421166	2.55477
N	2.50261	0.303839	-0.182222
C	3.65439	-0.161921	-0.91886
H	2.62592	1.06314	0.448117
H	4.55706	0.431497	-0.653765
H	3.48321	-0.0684208	-2.01578
H	3.85952	-1.23308	-0.691535
C	3.21272	0.506331	1.02479
C	4.66624	0.764235	1.13401
O	5.09726	1.67381	1.82921
H	2.66018	1.25455	1.63366
H	2.97503	-0.510387	1.40232
H	2.88714	0.593002	-0.033298
N	5.46655	-0.0440729	0.435056
C	6.89979	0.109476	0.407006
C	7.40636	-0.420571	-0.921154
O	6.65693	-1.02672	-1.68446
H	5.09871	-0.754153	-0.158523
H	7.1471	1.16288	0.449383
C	7.55897	-0.64917	1.57969
H	7.31422	-1.73164	1.5307
H	8.66154	-0.527227	1.57712
H	7.16769	-0.250301	2.54101
N	8.69792	-0.195159	-1.23272
C	9.26707	-0.657332	-2.47716
H	9.28769	0.300806	-0.604011
H	10.3404	-0.37416	-2.54789
H	8.72902	-0.211231	-3.34479
H	9.19075	-1.76594	-2.55654
