44
  This energy is -0.7211 and Call times are: 7890
C	3.35821	-0.779038	0.477709
C	2.00438	-1.10202	-0.0262488
O	1.81635	-2.05529	-0.769432
H	4.08868	-1.50536	0.059674
H	3.37989	-0.844965	1.58583
H	3.64951	0.245199	0.162785
N	1.0154	-0.298826	0.372712
C	-0.347738	-0.460337	-0.0681287
C	-1.01559	0.901703	-0.0488717
O	-0.452858	1.87199	0.454709
H	1.19058	0.49732	0.944839
H	-0.352707	-0.807558	-1.09382
C	-1.10842	-1.44931	0.842107
H	-1.11269	-1.08827	1.89266
H	-2.15539	-1.5928	0.504775
H	-0.597655	-2.43669	0.818862
N	-2.23684	1.00725	-0.608729
C	-2.94699	2.26453	-0.642058
H	-2.67426	0.211779	-1.01487
H	-3.93256	2.14632	-1.14396
H	-2.36075	3.03217	-1.19734
H	-3.12243	2.64435	0.390464
C	7.82058	-2.67204	-2.08937
C	7.43474	-1.48945	-1.28702
O	6.31434	-1.00566	-1.37105
H	6.9644	-2.97667	-2.72968
H	8.08807	-3.51728	-1.42096
H	8.68655	-2.42713	-2.7399
N	8.37233	-0.988874	-0.479093
C	8.1597	0.184677	0.330921
C	9.49892	0.867733	0.534688
O	10.5438	0.322455	0.184422
H	9.29256	-1.36875	-0.45208
H	7.52237	0.877475	-0.2043
C	7.53057	-0.190099	1.69069
H	8.189	-0.892609	2.24475
H	7.34912	0.706529	2.31811
H	6.55553	-0.69558	1.51707
N	9.49751	2.08985	1.10253
C	10.7234	2.81854	1.33113
H	8.64163	2.51649	1.37552
H	10.5136	3.80204	1.80643
H	11.2572	3.00046	0.370269
H	11.4036	2.24348	2.00037
