44
  This energy is -0.1994 and Call times are: 12941
C	1.54949	-2.79394	1.38047
C	0.512658	-2.16501	0.531601
O	-0.178648	-2.83433	-0.223724
H	1.57032	-3.88809	1.18483
H	1.31979	-2.62504	2.45352
H	2.5474	-2.36768	1.14473
N	0.381818	-0.840629	0.637807
C	-0.553862	-0.0823396	-0.154696
C	0.00297111	1.31754	-0.333128
O	0.995078	1.68525	0.293153
H	0.979659	-0.304433	1.22683
H	-0.630696	-0.526834	-1.13915
C	-1.9392	-0.0313271	0.526102
H	-1.86268	0.434197	1.53182
H	-2.67233	0.538131	-0.0811513
H	-2.32374	-1.06679	0.653746
N	-0.622707	2.13295	-1.20471
C	-0.161185	3.4805	-1.44403
H	-1.42155	1.81604	-1.7052
H	-0.806418	3.98993	-2.19328
H	0.88465	3.47511	-1.82806
H	-0.180109	4.07551	-0.502358
C	10.9365	2.29036	-1.08238
C	10.0789	1.10285	-1.2957
O	9.94699	0.608692	-2.40692
H	11.3706	2.60937	-2.05483
H	11.7632	2.04476	-0.383082
H	10.336	3.12618	-0.665463
N	9.46499	0.612572	-0.216294
C	8.56517	-0.512431	-0.273236
C	7.5566	-0.368777	0.850923
O	7.69506	0.495242	1.71464
H	9.5498	1.05041	0.674189
H	8.01527	-0.483193	-1.20564
C	9.33713	-1.84356	-0.141288
H	9.89301	-1.87848	0.819868
H	8.6568	-2.71792	-0.197559
H	10.0748	-1.92365	-0.969396
N	6.50659	-1.21339	0.860632
C	5.49342	-1.14806	1.88796
H	6.40959	-1.90326	0.150877
H	4.71422	-1.92424	1.72178
H	4.99895	-0.149668	1.88904
H	5.94277	-1.31183	2.89415
