44
  This energy is -2.2711 and Call times are: 4534
C	-1.42671	-1.15749	-2.95591
C	-0.47407	-0.297828	-2.21793
O	0.411212	0.312122	-2.80158
H	-1.17309	-1.14188	-4.03819
H	-2.46296	-0.78123	-2.82417
H	-1.3636	-2.20299	-2.58708
N	-0.636716	-0.231877	-0.894463
C	0.238053	0.528607	-0.0371408
C	0.252228	-0.131068	1.32894
O	-0.531832	-1.03913	1.59798
H	-1.33644	-0.766366	-0.429092
H	1.24731	0.484535	-0.427117
C	-0.235992	1.99425	0.0742022
H	-1.26743	2.04054	0.484124
H	0.43732	2.59363	0.720676
H	-0.246163	2.45458	-0.937899
N	1.15674	0.308252	2.22609
C	1.24794	-0.263279	3.54943
H	1.78553	1.04123	1.98852
H	2.0522	0.231787	4.13704
H	1.47556	-1.3524	3.49207
H	0.286125	-0.140028	4.09794
C	3.40019	3.30161	0.0502935
C	3.88716	2.10098	-0.665593
O	3.84909	2.03303	-1.88639
H	3.01612	4.03879	-0.687886
H	4.22851	3.76671	0.625028
H	2.57814	3.02624	0.74418
N	4.36165	1.10975	0.0925016
C	4.83093	-0.137735	-0.457149
C	4.61856	-1.22222	0.582254
O	4.27504	-0.937805	1.72803
H	4.34825	1.16324	1.08689
H	4.23033	-0.396186	-1.32034
C	6.32309	-0.0434531	-0.844221
H	6.94091	0.211319	0.0431534
H	6.69274	-0.993527	-1.28153
H	6.45612	0.761508	-1.59966
N	4.81148	-2.50024	0.200854
C	4.62771	-3.59927	1.11984
H	5.08534	-2.7108	-0.731744
H	4.83344	-4.57029	0.617811
H	3.58252	-3.61849	1.50518
H	5.31514	-3.50222	1.99114
