44
  This energy is -0.668 and Call times are: 12353
C	-1.62334	3.07676	-0.104678
C	-1.39852	1.70402	-0.610823
O	-2.16287	1.19402	-1.41834
H	-2.55137	3.48799	-0.558041
H	-0.769008	3.73058	-0.37922
H	-1.73832	3.06338	0.999719
N	-0.326598	1.06484	-0.136696
C	-0.00056257	-0.290971	-0.502802
C	0.75656	-0.92311	0.649899
O	1.1355	-0.244054	1.60227
H	0.263366	1.47797	0.551153
H	-0.915392	-0.854929	-0.635727
C	0.848917	-0.325175	-1.79216
H	1.79242	0.244416	-1.65289
H	1.09481	-1.36443	-2.09218
H	0.278508	0.149587	-2.62016
N	0.988146	-2.24946	0.593355
C	1.69598	-2.93878	1.64691
H	0.670129	-2.78276	-0.183513
H	1.78508	-4.02333	1.41659
H	1.15958	-2.8295	2.61728
H	2.72132	-2.52094	1.77028
C	8.45124	2.53148	-0.639248
C	7.12943	1.89315	-0.830294
O	6.22027	2.47896	-1.40185
H	8.42901	3.55728	-1.06715
H	9.23849	1.94345	-1.15616
H	8.69093	2.59865	0.442931
N	6.99169	0.656999	-0.345181
C	5.75247	-0.0763412	-0.416674
C	5.70196	-1.03534	0.757778
O	6.68682	-1.20693	1.47354
H	7.72804	0.208941	0.153701
H	4.92343	0.611647	-0.307226
C	5.64389	-0.847425	-1.75042
H	6.48845	-1.56094	-1.85836
H	4.68775	-1.40509	-1.82348
H	5.69108	-0.126773	-2.59586
N	4.54151	-1.68027	0.988937
C	4.39787	-2.60774	2.08682
H	3.75434	-1.52523	0.401236
H	3.37075	-3.03404	2.10968
H	4.5874	-2.09783	3.05911
H	5.12399	-3.44708	1.98987
