44
  This energy is -0.2975 and Call times are: 10526
C	0.660044	-0.21657	3.4103
C	-0.0382109	-0.670701	2.18664
O	-0.676647	-1.71407	2.17244
H	0.50737	-0.963876	4.21906
H	0.25256	0.761226	3.74289
H	1.7485	-0.115964	3.21478
N	0.0720376	0.116217	1.1138
C	-0.515589	-0.214111	-0.16062
C	0.327344	0.422701	-1.24942
O	1.22213	1.21798	-0.969067
H	0.629025	0.941683	1.12919
H	-0.4739	-1.28637	-0.306034
C	-1.97412	0.287165	-0.242141
H	-2.01638	1.38855	-0.103532
H	-2.44215	0.0267088	-1.21355
H	-2.57051	-0.185564	0.568534
N	0.064407	0.0785144	-2.52552
C	0.818222	0.629244	-3.62763
H	-0.660896	-0.569775	-2.73223
H	0.451949	0.223421	-4.59633
H	1.89912	0.377972	-3.52864
H	0.722716	1.73891	-3.65356
C	4.82066	-2.2578	2.4609
C	5.81445	-1.34772	1.84828
O	6.83992	-1.03972	2.43986
H	5.16753	-2.55091	3.4756
H	4.70669	-3.17246	1.8419
H	3.8385	-1.74749	2.55035
N	5.52571	-0.888268	0.628477
C	6.37437	0.0387462	-0.0779071
C	5.50329	0.865353	-1.005
O	4.32077	0.578078	-1.18063
H	4.66776	-1.11549	0.176655
H	6.82759	0.719935	0.631459
C	7.46122	-0.709673	-0.880326
H	6.99673	-1.40089	-1.61552
H	8.12975	-0.00620683	-1.41766
H	8.08146	-1.31403	-0.182908
N	6.07005	1.92374	-1.61705
C	5.31766	2.77127	-2.51247
H	7.02724	2.1427	-1.45919
H	5.95912	3.58625	-2.91443
H	4.45407	3.23421	-1.98222
H	4.92037	2.18201	-3.37042
