44
  This energy is 0 and Call times are: 17687
C	2.21698	-2.56329	-0.791968
C	1.53991	-1.28385	-1.1014
O	1.90634	-0.583377	-2.03493
H	3.05371	-2.71844	-1.5073
H	1.50195	-3.40738	-0.886773
H	2.62618	-2.53989	0.240069
N	0.520534	-0.944991	-0.308667
C	-0.207992	0.290084	-0.458328
C	-0.745022	0.69037	0.902894
O	-0.672257	-0.0784909	1.85959
H	0.260211	-1.50559	0.472251
H	0.47215	1.06945	-0.778683
C	-1.36342	0.129876	-1.47053
H	-2.06716	-0.662306	-1.137
H	-1.92347	1.07793	-1.60495
H	-0.948002	-0.170942	-2.45709
N	-1.293	1.91563	1.02327
C	-1.82521	2.38538	2.28115
H	-1.33913	2.52512	0.238758
H	-2.23086	3.41576	2.17629
H	-1.03149	2.39909	3.06287
H	-2.64577	1.71953	2.63396
C	86.9382	-2.11126	-2.31728
C	87.2262	-0.764343	-1.77504
O	86.9417	0.245428	-2.4042
H	86.4743	-2.011	-3.32258
H	86.2344	-2.65044	-1.64889
H	87.8782	-2.69473	-2.41185
N	87.8095	-0.719986	-0.574949
C	88.1899	0.515573	0.063199
C	89.3778	0.2362	0.964545
O	89.7469	-0.916485	1.18079
H	88.0721	-1.55113	-0.0932033
H	88.5159	1.22135	-0.690604
C	87.016	1.09901	0.879768
H	86.6881	0.379592	1.66013
H	87.2921	2.05768	1.36478
H	86.1554	1.28811	0.201569
N	90.0128	1.29341	1.50779
C	91.1564	1.12503	2.37382
H	89.7018	2.21877	1.3178
H	91.5373	2.11161	2.71843
H	91.9799	0.598677	1.83905
H	90.8853	0.521176	3.26993
