44
  This energy is -2.0384 and Call times are: 14743
C	0.502558	-2.88157	1.88591
C	-0.375995	-1.92943	1.16987
O	-1.54884	-2.19566	0.946341
H	-0.0737363	-3.80015	2.13082
H	0.871604	-2.4267	2.82912
H	1.36708	-3.15945	1.24678
N	0.183127	-0.77937	0.786312
C	-0.532871	0.227315	0.0430135
C	0.467577	0.99053	-0.80443
O	1.67642	0.819946	-0.658402
H	1.14966	-0.594345	0.939446
H	-1.22745	-0.254708	-0.633629
C	-1.28098	1.18733	0.993773
H	-0.567627	1.69001	1.68114
H	-1.84746	1.95881	0.433014
H	-2.0018	0.606241	1.60949
N	-0.0172995	1.84984	-1.72231
C	0.858825	2.61576	-2.57785
H	-0.998655	1.97124	-1.8285
H	0.270416	3.26379	-3.26419
H	1.49561	1.94013	-3.19372
H	1.53063	3.26564	-1.97165
C	2.85175	3.41154	-0.68857
C	2.54552	2.25928	0.188741
O	2.20176	2.42262	1.35131
H	2.73159	4.35435	-0.111923
H	2.1568	3.42871	-1.5543
H	3.89768	3.34566	-1.05567
N	2.66812	1.0477	-0.358448
C	2.44616	-0.169483	0.381661
C	3.30386	-1.25967	-0.232678
O	3.89931	-1.07083	-1.29168
H	2.98846	0.929455	-1.294
H	2.78051	-0.0328324	1.40252
C	0.955135	-0.570763	0.349243
H	0.61438	-0.721347	-0.697302
H	0.769027	-1.49907	0.927279
H	0.345786	0.244792	0.796347
N	3.39353	-2.43116	0.427313
C	4.19072	-3.52441	-0.0781255
H	2.90768	-2.56363	1.28491
H	4.13661	-4.39974	0.606048
H	5.25822	-3.22038	-0.17448
H	3.83013	-3.84194	-1.08326
