44
  This energy is -0.402 and Call times are: 15163
C	-2.37147	-0.908071	-2.37997
C	-1.95651	-0.154996	-1.17505
O	-2.66317	0.725678	-0.70447
H	-3.35236	-0.522933	-2.73408
H	-2.47447	-1.98725	-2.14016
H	-1.62162	-0.77929	-3.18882
N	-0.779001	-0.489732	-0.642308
C	-0.221734	0.182217	0.505079
C	1.29023	0.0949872	0.416136
O	1.83147	-0.613857	-0.43022
H	-0.196364	-1.18066	-1.06066
H	-0.487022	1.23146	0.468318
C	-0.724771	-0.457917	1.81749
H	-0.443691	-1.53178	1.86047
H	-0.313606	0.0594603	2.70844
H	-1.83388	-0.389889	1.85743
N	2.01115	0.825993	1.28902
C	3.45537	0.810574	1.27613
H	1.55522	1.39671	1.96392
H	3.86285	1.47581	2.069
H	3.84313	1.16014	0.291897
H	3.83902	-0.220479	1.45187
C	4.19893	-2.26716	-1.59945
C	4.78662	-1.67327	-0.377534
O	4.33781	-1.93163	0.730723
H	3.34017	-2.91412	-1.3169
H	4.95592	-2.88479	-2.12694
H	3.83739	-1.46628	-2.27838
N	5.82062	-0.848035	-0.557015
C	6.46957	-0.161046	0.531775
C	7.0454	1.13634	-0.00374586
O	7.0612	1.36733	-1.21126
H	6.14853	-0.615555	-1.46821
H	5.73183	0.0983814	1.28081
C	7.58406	-1.03414	1.14891
H	8.34668	-1.29179	0.383357
H	8.08212	-0.521678	1.99735
H	7.14121	-1.98139	1.52697
N	7.52737	2.02244	0.889869
C	8.08963	3.28604	0.473534
H	7.50213	1.8194	1.86312
H	8.43036	3.87407	1.35408
H	7.33355	3.88925	-0.0794213
H	8.96242	3.12509	-0.199875
