44
  This energy is 0 and Call times are: 18247
C	2.68619	2.12882	0.604326
C	1.33551	1.85609	0.0635664
O	0.608654	2.7654	-0.312257
H	2.86485	3.22605	0.610081
H	3.45745	1.64245	-0.0291931
H	2.76675	1.74616	1.64364
N	0.963654	0.574814	0.0141082
C	-0.336729	0.156348	-0.446814
C	-0.690353	-1.14329	0.251353
O	0.143812	-1.74217	0.92754
H	1.55044	-0.150916	0.36176
H	-1.07425	0.892201	-0.151502
C	-0.344173	-0.0329532	-1.97957
H	0.404938	-0.795423	-2.28208
H	-1.34372	-0.341769	-2.34843
H	-0.0749825	0.928279	-2.46939
N	-1.94749	-1.60745	0.109272
C	-2.37663	-2.83323	0.741326
H	-2.60949	-1.10669	-0.438513
H	-3.44277	-3.04505	0.505328
H	-2.26999	-2.7627	1.84809
H	-1.76187	-3.69308	0.389369
C	127.976	1.11805	1.04561
C	126.609	1.36224	0.531904
O	126.141	2.49173	0.489383
H	128.425	2.08271	1.36713
H	128.61	0.673675	0.249944
H	127.94	0.430287	1.91668
N	125.927	0.28876	0.125733
C	124.571	0.362204	-0.358424
C	123.89	-0.959775	-0.0590002
O	124.535	-1.921	0.355587
H	126.306	-0.628823	0.204702
H	124.038	1.13073	0.187339
C	124.542	0.655359	-1.87448
H	125.079	-0.138335	-2.43574
H	123.503	0.728059	-2.25668
H	125.053	1.62316	-2.07111
N	122.559	-1.03585	-0.255689
C	121.824	-2.25122	0.00738558
H	122.053	-0.246163	-0.587753
H	120.743	-2.11327	-0.215265
H	121.926	-2.54863	1.07618
H	122.208	-3.08663	-0.621769
