44
  This energy is -2.7679 and Call times are: 8030
C	0.706747	0.826077	-3.30617
C	1.12939	0.471453	-1.93258
O	2.29149	0.18258	-1.68259
H	1.58188	0.759305	-3.98849
H	0.311448	1.86336	-3.32916
H	-0.0779729	0.123778	-3.65843
N	0.177192	0.483807	-0.996882
C	0.426466	0.120061	0.375747
C	-0.858837	-0.436795	0.958381
O	-1.91592	-0.365406	0.334526
H	-0.772298	0.681199	-1.22354
H	1.16447	-0.67177	0.407095
C	0.906595	1.34047	1.19142
H	0.14524	2.14907	1.16831
H	1.11521	1.07024	2.24687
H	1.84372	1.73625	0.742523
N	-0.795137	-1.01591	2.17354
C	-1.96597	-1.57846	2.80509
H	0.0701234	-1.06782	2.66108
H	-1.70898	-2.00776	3.79851
H	-2.40119	-2.38801	2.17543
H	-2.74692	-0.797589	2.95176
C	5.58301	-2.33871	-2.54348
C	5.98242	-0.998605	-2.05795
O	6.59498	-0.221428	-2.77711
H	5.94216	-2.47341	-3.5869
H	4.47721	-2.43729	-2.52847
H	6.03292	-3.12719	-1.90397
N	5.63989	-0.695419	-0.803708
C	5.99592	0.553252	-0.177116
C	6.11229	0.316487	1.31686
O	5.75627	-0.749659	1.81515
H	5.17727	-1.35405	-0.217154
H	6.97052	0.865448	-0.531107
C	4.93885	1.63983	-0.472432
H	3.94086	1.32457	-0.100052
H	5.2087	2.60985	-0.00685456
H	4.8649	1.79079	-1.57156
N	6.62519	1.30986	2.06929
C	6.77906	1.173	3.49889
H	6.91149	2.16375	1.64739
H	7.21793	2.09623	3.93737
H	7.4494	0.316838	3.74161
H	5.79351	0.988241	3.98439
