44
  This energy is 5.44806e-320 and Call times are: 12114
C	-2.803	0.939363	-1.8367
C	-1.34339	0.947769	-1.59051
O	-0.563067	1.38338	-2.42582
H	-3.00733	1.35396	-2.84776
H	-3.32231	1.56454	-1.08025
H	-3.19323	-0.0991425	-1.78856
N	-0.936461	0.455435	-0.418161
C	0.45479	0.357545	-0.0529259
C	0.611003	-0.806817	0.906977
O	-0.374501	-1.37708	1.37098
H	-1.58051	0.0668536	0.234577
H	1.04042	0.129416	-0.934755
C	0.947198	1.66757	0.600223
H	0.353617	1.89652	1.51087
H	2.02077	1.60972	0.873398
H	0.816092	2.50709	-0.116971
N	1.8628	-1.19391	1.22194
C	2.10917	-2.29565	2.12286
H	2.64763	-0.722768	0.833179
H	3.20146	-2.45915	2.25468
H	1.65947	-3.23493	1.72689
H	1.66152	-2.09337	3.12278
C	10.8647	0.114062	-0.309513
C	9.61277	-0.574831	0.0769129
O	9.6071	-1.76416	0.363073
H	11.7031	-0.615865	-0.301365
H	11.0907	0.929084	0.409788
H	10.768	0.538977	-1.33088
N	8.50533	0.170656	0.0914398
C	7.20537	-0.368136	0.405052
C	6.16228	0.460271	-0.321094
O	6.47339	1.50196	-0.895367
H	8.51891	1.12775	-0.183592
H	7.13647	-1.37947	0.0241695
C	6.95122	-0.344599	1.92824
H	7.01137	0.694017	2.31773
H	5.95899	-0.769736	2.18369
H	7.73075	-0.950413	2.43977
N	4.89268	0.00845875	-0.31914
C	3.83359	0.727076	-0.988536
H	4.66114	-0.838688	0.147555
H	2.8635	0.195256	-0.873165
H	4.05222	0.825223	-2.07659
H	3.72466	1.75152	-0.564519
