44
  This energy is 0 and Call times are: 16959
C	2.69386	0.521123	-2.14109
C	1.24125	0.419579	-1.87508
O	0.418793	0.766289	-2.7116
H	2.85263	0.953899	-3.15271
H	3.1611	-0.485359	-2.10341
H	3.17554	1.18045	-1.38852
N	0.888862	-0.0646783	-0.681894
C	-0.485268	-0.182739	-0.261908
C	-0.529617	-0.0643302	1.2499
O	0.506362	-0.0616001	1.91206
H	1.57	-0.304318	0.00403159
H	-1.05495	0.644255	-0.667085
C	-1.08757	-1.52995	-0.717425
H	-0.509815	-2.37877	-0.293454
H	-2.14957	-1.62699	-0.412041
H	-1.03738	-1.59824	-1.8261
N	-1.73943	0.0454792	1.83327
C	-1.87962	0.168366	3.26555
H	-2.56612	0.0454757	1.28041
H	-2.95193	0.247296	3.5504
H	-1.35096	1.07664	3.63546
H	-1.44415	-0.718324	3.78061
C	41.7533	2.13776	0.874858
C	40.3134	1.83763	0.708791
O	39.4551	2.58525	1.15703
H	41.8677	3.08105	1.45189
H	42.2351	2.26289	-0.117605
H	42.2544	1.31531	1.42769
N	40.0131	0.715332	0.051011
C	38.6576	0.268135	-0.152128
C	38.6692	-1.2455	-0.253822
O	39.7294	-1.86371	-0.32718
H	40.7229	0.0960686	-0.272223
H	38.0619	0.528715	0.71382
C	38.0566	0.892159	-1.43062
H	38.6613	0.616442	-2.32072
H	37.0083	0.566367	-1.59058
H	38.0655	2.00011	-1.33737
N	37.481	-1.88138	-0.251987
C	37.3937	-3.32044	-0.339582
H	36.634	-1.36419	-0.187775
H	36.3321	-3.65178	-0.322672
H	37.9238	-3.79888	0.515612
H	37.8603	-3.68583	-1.28296
