44
  This energy is 0 and Call times are: 17995
C	3.11539	-1.31316	-0.826206
C	1.99295	-0.376372	-1.05791
O	2.09449	0.549301	-1.85115
H	3.98284	-1.00878	-1.45132
H	2.81614	-2.34539	-1.10497
H	3.41731	-1.29184	0.242197
N	0.879377	-0.599313	-0.356032
C	-0.281152	0.251808	-0.441611
C	-1.01444	0.186507	0.884882
O	-0.68956	-0.63029	1.74454
H	0.826088	-1.33238	0.316011
H	0.0373889	1.27694	-0.583969
C	-1.20739	-0.192592	-1.59479
H	-1.54293	-1.24075	-1.44376
H	-2.09782	0.463474	-1.67983
H	-0.647701	-0.144546	-2.55437
N	-2.02255	1.05797	1.08561
C	-2.77383	1.07364	2.31911
H	-2.26804	1.71415	0.379755
H	-3.5592	1.86081	2.29125
H	-2.10315	1.27822	3.18492
H	-3.26862	0.0903092	2.49049
C	104.155	0.866584	0.712558
C	105.601	0.869565	1.02925
O	106.055	1.5844	1.9125
H	103.634	1.59411	1.37156
H	103.728	-0.143881	0.883608
H	103.995	1.16119	-0.345986
N	106.37	0.057251	0.30027
C	107.801	-0.0178594	0.462663
C	108.408	-0.417745	-0.869031
O	107.694	-0.775433	-1.80424
H	105.993	-0.488198	-0.442631
H	108.184	0.964171	0.709999
C	108.179	-1.03861	1.5583
H	107.795	-2.04842	1.29988
H	109.277	-1.0955	1.70248
H	107.718	-0.73038	2.52192
N	109.749	-0.357751	-0.988304
C	110.415	-0.713909	-2.21944
H	110.309	-0.0619542	-0.221711
H	111.516	-0.598626	-2.11815
H	110.07	-0.0630489	-3.05524
H	110.196	-1.77162	-2.49274
