44
  This energy is 0 and Call times are: 17827
C	-3.2453	-0.385324	1.19675
C	-2.27735	0.103125	0.188967
O	-2.65243	0.528009	-0.895099
H	-4.27507	-0.306519	0.785355
H	-3.17914	0.228186	2.11977
H	-3.03731	-1.44781	1.44365
N	-0.987735	0.0500045	0.530206
C	0.0729092	0.449307	-0.360946
C	1.31309	-0.350165	-0.00830421
O	1.34535	-1.04932	1.00257
H	-0.695374	-0.336511	1.40026
H	-0.198535	0.192071	-1.3772
C	0.352786	1.96349	-0.241902
H	0.641549	2.22621	0.798113
H	1.15817	2.28588	-0.933233
H	-0.57038	2.52848	-0.496652
N	2.36675	-0.271131	-0.844708
C	3.58759	-1.00098	-0.593596
H	2.32021	0.296715	-1.65985
H	4.33445	-0.80546	-1.39435
H	3.38995	-2.09688	-0.558706
H	4.03233	-0.699157	0.382236
C	100.088	1.33747	-1.18019
C	99.3109	0.554219	-0.193784
O	99.869	-0.124137	0.657505
H	101.174	1.17361	-1.00564
H	99.8662	2.41972	-1.07038
H	99.8371	1.01145	-2.21149
N	97.9815	0.630708	-0.290455
C	97.0921	-0.108191	0.570707
C	95.8068	-0.371589	-0.19091
O	95.5979	0.163569	-1.27796
H	97.5419	1.15466	-1.01438
H	97.5341	-1.06983	0.800019
C	96.8014	0.677459	1.8682
H	96.3384	1.65969	1.634
H	96.1287	0.112892	2.54585
H	97.7568	0.865813	2.40503
N	94.9137	-1.21534	0.362664
C	93.6652	-1.53036	-0.291677
H	95.1023	-1.64185	1.24105
H	93.0685	-2.24154	0.321074
H	93.8498	-1.99499	-1.28732
H	93.0597	-0.60833	-0.447942
