44
  This energy is 0 and Call times are: 18107
C	-1.63344	-1.97798	2.35205
C	-1.62286	-0.900325	1.33732
O	-2.66476	-0.416277	0.917145
H	-2.68528	-2.23438	2.60457
H	-1.11451	-1.64077	3.27387
H	-1.1285	-2.88336	1.95403
N	-0.423162	-0.496411	0.913099
C	-0.253023	0.51282	-0.102315
C	1.05161	0.239642	-0.82678
O	1.83784	-0.608718	-0.409837
H	0.414736	-0.928361	1.23437
H	-1.05037	0.425586	-0.82982
C	-0.240731	1.92587	0.520886
H	0.58365	2.01923	1.25961
H	-0.124216	2.71264	-0.252385
H	-1.20155	2.10092	1.05242
N	1.30888	0.951931	-1.94145
C	2.52248	0.756757	-2.69992
H	0.658618	1.63108	-2.26546
H	2.54894	1.43511	-3.58103
H	2.59337	-0.293762	-3.06414
H	3.41745	0.964861	-2.06995
C	116.017	3.17283	1.00544
C	115.697	1.75601	1.2899
O	115.971	1.24931	2.36906
H	116.525	3.61886	1.88816
H	115.086	3.74222	0.800463
H	116.694	3.24322	0.128002
N	115.1	1.07404	0.309159
C	114.766	-0.323767	0.421614
C	114.791	-0.929436	-0.969112
O	114.902	-0.216507	-1.96461
H	114.921	1.48891	-0.578247
H	115.526	-0.827128	1.00628
C	113.375	-0.507807	1.0676
H	112.594	-0.000493626	0.462521
H	113.112	-1.58028	1.17239
H	113.378	-0.0502273	2.08099
N	114.695	-2.26991	-1.06912
C	114.715	-2.93564	-2.35075
H	114.61	-2.8303	-0.251961
H	114.626	-4.03698	-2.22328
H	115.667	-2.72153	-2.8896
H	113.871	-2.58639	-2.98846
