44
  This energy is -0.0509 and Call times are: 15892
C	-1.23529	-2.88987	1.49513
C	-0.597556	-2.17771	0.36497
O	-0.0912704	-2.79073	-0.564699
H	-1.14377	-3.98643	1.33685
H	-2.31159	-2.62421	1.55644
H	-0.73358	-2.62132	2.44868
N	-0.60669	-0.843941	0.423001
C	0.0123193	-0.0143992	-0.580616
C	0.44668	1.28109	0.0786302
O	0.107381	1.54632	1.23025
H	-0.986417	-0.359939	1.20621
H	0.905263	-0.504514	-0.948136
C	-0.965972	0.270165	-1.74131
H	-1.87759	0.782435	-1.36639
H	-0.496528	0.896591	-2.52727
H	-1.27666	-0.692133	-2.2037
N	1.22014	2.11926	-0.639175
C	1.6862	3.37242	-0.092769
H	1.48773	1.88534	-1.56802
H	2.308	3.9185	-0.836002
H	2.30212	3.19844	0.819178
H	0.826365	4.02189	0.190102
C	9.01298	-0.564315	3.41771
C	8.7138	0.203201	2.18784
O	7.83216	1.05102	2.16954
H	8.31994	-0.246442	4.22672
H	10.0571	-0.373514	3.74338
H	8.87611	-1.65079	3.23355
N	9.45338	-0.0843683	1.1142
C	9.25105	0.547973	-0.165556
C	9.68634	-0.422941	-1.24696
O	10.2718	-1.46508	-0.959132
H	10.1397	-0.805747	1.13339
H	8.19424	0.736554	-0.307731
C	10.054	1.8636	-0.26394
H	11.1393	1.66924	-0.128645
H	9.89562	2.3671	-1.23961
H	9.72455	2.5557	0.541544
N	9.40061	-0.104701	-2.52488
C	9.77094	-0.97019	-3.62031
H	8.92256	0.741039	-2.73764
H	9.44874	-0.534749	-4.59181
H	9.29349	-1.97067	-3.50914
H	10.875	-1.11596	-3.65014
