44
  This energy is -3.5929 and Call times are: 11335
C	-0.788967	-2.97467	-1.62528
C	-1.06219	-1.55777	-1.29529
O	-1.91361	-0.92001	-1.89922
H	-1.4451	-3.28914	-2.46581
H	-0.997575	-3.61953	-0.745858
H	0.271271	-3.09877	-1.9312
N	-0.330857	-1.02546	-0.313362
C	-0.452285	0.352885	0.0915675
C	0.88665	0.802998	0.644927
O	1.79104	-0.00639261	0.841622
H	0.386765	-1.54531	0.14122
H	-0.663757	0.963235	-0.77756
C	-1.561	0.520252	1.15363
H	-1.33917	-0.097573	2.0498
H	-1.6737	1.57942	1.46345
H	-2.53007	0.177426	0.729691
N	1.04734	2.11599	0.902358
C	2.28865	2.63734	1.42535
H	0.305346	2.75613	0.732836
H	2.22316	3.73835	1.5693
H	3.12958	2.42472	0.726139
H	2.52912	2.16887	2.40711
C	6.06472	3.27763	-0.28469
C	6.25939	1.91414	-0.827055
O	5.70892	1.55932	-1.86025
H	5.36723	3.83892	-0.943713
H	7.0348	3.81634	-0.24634
H	5.63071	3.22506	0.736069
N	7.0596	1.10598	-0.127823
C	7.31133	-0.262217	-0.506283
C	7.61516	-1.05287	0.752341
O	7.77822	-0.483454	1.82979
H	7.46795	1.39583	0.733046
H	6.41409	-0.682965	-0.942802
C	8.49033	-0.351805	-1.49984
H	9.4136	0.0701238	-1.04863
H	8.68515	-1.399	-1.8096
H	8.24941	0.240349	-2.4096
N	7.69025	-2.39411	0.645342
C	7.96941	-3.22928	1.79021
H	7.5513	-2.83694	-0.23424
H	7.98961	-4.30248	1.49854
H	7.18985	-3.0939	2.57459
H	8.95652	-2.9682	2.23585
