44
  This energy is -2.32 and Call times are: 2419
C	1.93049	2.2885	1.77444
C	0.803054	1.33444	1.67542
O	0.19037	0.973076	2.67063
H	2.09076	2.55827	2.84094
H	1.70246	3.2113	1.20069
H	2.85882	1.82643	1.37723
N	0.501718	0.896918	0.450618
C	-0.541293	-0.0663914	0.200171
C	-0.176738	-0.843816	-1.05053
O	0.771045	-0.497896	-1.75322
H	1.03586	1.16859	-0.344842
H	-0.579108	-0.773157	1.01973
C	-1.90722	0.632586	0.0243567
H	-1.87204	1.35007	-0.823003
H	-2.72093	-0.0996152	-0.155304
H	-2.14987	1.20169	0.948254
N	-0.921596	-1.92508	-1.354
C	-0.645878	-2.72942	-2.52156
H	-1.68193	-2.19162	-0.770976
H	-1.36748	-3.57246	-2.59767
H	0.383599	-3.15259	-2.47282
H	-0.723595	-2.11633	-3.4485
C	7.51849	-1.47737	2.5375
C	6.39328	-0.638486	2.06702
O	5.50764	-0.280808	2.8313
H	7.38294	-1.70131	3.61793
H	8.48021	-0.939911	2.39977
H	7.54531	-2.43323	1.97299
N	6.40305	-0.30291	0.774857
C	5.35403	0.473021	0.161632
C	5.27418	0.0862527	-1.30316
O	6.13057	-0.634583	-1.81178
H	7.10906	-0.635766	0.156308
H	4.40582	0.213794	0.615853
C	5.6291	1.98568	0.308038
H	6.59678	2.25395	-0.167021
H	4.82138	2.59403	-0.148061
H	5.69143	2.24456	1.38759
N	4.23109	0.553287	-2.01721
C	4.069	0.233241	-3.4163
H	3.54606	1.13189	-1.58707
H	3.15128	0.710583	-3.82517
H	3.98482	-0.868364	-3.56005
H	4.94358	0.592444	-4.00557
