44
  This energy is -0.5281 and Call times are: 2142
C	-0.0273343	-1.3663	3.20081
C	-0.655067	-0.583363	2.11264
O	-1.83302	-0.257719	2.16541
H	-0.787717	-1.58493	3.98177
H	0.802313	-0.787909	3.65895
H	0.366324	-2.32578	2.80393
N	0.131776	-0.261006	1.0834
C	-0.346684	0.460979	-0.0691531
C	0.495612	0.0559726	-1.26417
O	1.5049	-0.631123	-1.11943
H	1.07788	-0.568375	1.03568
H	-1.36695	0.164384	-0.278255
C	-0.262319	1.98583	0.160927
H	0.7858	2.29212	0.365065
H	-0.640848	2.5528	-0.714166
H	-0.87958	2.25834	1.04471
N	0.0923904	0.468615	-2.48202
C	0.827555	0.127262	-3.67751
H	-0.729226	1.02046	-2.57942
H	0.336933	0.55894	-4.5776
H	0.880701	-0.978421	-3.80366
H	1.86907	0.519056	-3.62378
C	4.88163	-3.10946	-0.97958
C	4.95412	-1.63705	-1.11342
O	4.4728	-1.065	-2.08167
H	4.36577	-3.53407	-1.86809
H	4.31059	-3.38318	-0.0675807
H	5.90382	-3.53891	-0.918208
N	5.57053	-0.981157	-0.127411
C	5.75729	0.448378	-0.137775
C	7.01227	0.767168	0.652772
O	7.58441	-0.104364	1.30454
H	5.99323	-1.46428	0.634024
H	5.92416	0.779466	-1.1552
C	4.53519	1.16885	0.47265
H	4.36991	0.837336	1.51994
H	4.6609	2.2709	0.457743
H	3.62724	0.914878	-0.116815
N	7.47647	2.03142	0.605969
C	8.66714	2.42646	1.32181
H	7.0021	2.72174	0.0697655
H	8.88535	3.50468	1.15733
H	9.5464	1.8346	0.978457
H	8.54259	2.25663	2.41579
