44
  This energy is 0 and Call times are: 16651
C	0.285909	-3.45865	-0.262099
C	0.344066	-2.20153	0.517267
O	0.427495	-2.21661	1.7376
H	0.312304	-4.3244	0.434797
H	1.15575	-3.52363	-0.949052
H	-0.654268	-3.50034	-0.851523
N	0.298143	-1.06614	-0.183562
C	0.302066	0.235222	0.436922
C	-0.440346	1.19542	-0.473247
O	-0.778041	0.85592	-1.60569
H	0.188953	-1.06994	-1.17348
H	-0.244786	0.187563	1.37036
C	1.74607	0.726307	0.679689
H	2.30431	0.785455	-0.278907
H	1.76244	1.72136	1.16971
H	2.27278	0.0045659	1.34152
N	-0.720449	2.4227	0.00774225
C	-1.4282	3.40153	-0.78419
H	-0.442625	2.67757	0.928029
H	-1.56187	4.34688	-0.213511
H	-2.43484	3.0205	-1.07188
H	-0.866414	3.63203	-1.71822
C	16.572	2.20829	1.70825
C	17.5359	1.89625	0.629021
O	17.7445	2.68633	-0.281278
H	16.1157	3.20377	1.51667
H	17.0911	2.23368	2.6894
H	15.7674	1.44348	1.73564
N	18.1531	0.715053	0.707826
C	19.085	0.252817	-0.290379
C	19.0411	-1.26348	-0.312401
O	18.4223	-1.88814	0.547074
H	17.9424	0.0653748	1.43265
H	18.7651	0.598984	-1.26529
C	20.5148	0.748648	0.0180434
H	20.8475	0.385011	1.0136
H	21.2393	0.410845	-0.751003
H	20.5216	1.86037	0.0370478
N	19.6947	-1.89356	-1.30827
C	19.7039	-3.33404	-1.41368
H	20.1863	-1.37077	-1.9968
H	20.2943	-3.65985	-2.29828
H	18.6668	-3.72671	-1.52059
H	20.1543	-3.79189	-0.503344
