44
  This energy is -4.1653 and Call times are: 12437
C	1.69032	-1.76857	2.47541
C	0.539072	-1.57952	1.56435
O	-0.290503	-2.46351	1.40075
H	1.64761	-2.78904	2.91438
H	1.65498	-1.02229	3.29673
H	2.64319	-1.65757	1.91612
N	0.464119	-0.402285	0.939148
C	-0.574308	-0.0868669	-0.00992511
C	-0.0196693	0.918979	-1.00099
O	1.07556	1.44646	-0.816756
H	1.16925	0.292043	1.05123
H	-0.832725	-0.97917	-0.566384
C	-1.81856	0.485679	0.703699
H	-1.5562	1.40702	1.26614
H	-2.63048	0.719612	-0.015038
H	-2.20266	-0.263882	1.42963
N	-0.765113	1.20293	-2.08713
C	-0.316273	2.14354	-3.08713
H	-1.64689	0.762868	-2.22088
H	-1.06792	2.24052	-3.90128
H	0.646498	1.80896	-3.53702
H	-0.155527	3.14959	-2.63639
C	9.39038	-1.63862	-0.884216
C	7.98543	-1.25159	-1.14397
O	7.46774	-1.4426	-2.23572
H	9.82772	-2.07579	-1.80805
H	9.43518	-2.39497	-0.0726276
H	9.98501	-0.747499	-0.591988
N	7.32794	-0.686994	-0.12843
C	5.9692	-0.218502	-0.242001
C	5.78086	0.927442	0.734171
O	6.64827	1.19822	1.56242
H	7.77543	-0.500772	0.741587
H	5.80952	0.176324	-1.23761
C	4.967	-1.35488	0.0571256
H	5.12348	-1.75316	1.08227
H	3.91715	-1.01021	-0.0405982
H	5.1283	-2.18573	-0.663985
N	4.63796	1.63677	0.652717
C	4.37348	2.74816	1.53648
H	3.94971	1.40511	-0.0267794
H	3.38307	3.20199	1.31209
H	5.15366	3.53526	1.42206
H	4.37355	2.41392	2.59922
