44
  This energy is -2.2078 and Call times are: 10941
C	2.44843	2.20219	1.12617
C	1.63507	0.973727	1.26928
O	1.90283	0.132345	2.11592
H	3.27782	2.18182	1.86616
H	1.82213	3.09975	1.31294
H	2.87971	2.25873	0.104467
N	0.607112	0.841223	0.427783
C	-0.248673	-0.318982	0.416997
C	-0.788589	-0.495396	-0.989745
O	-0.611991	0.369873	-1.84522
H	0.426444	1.51513	-0.282901
H	0.338815	-1.19839	0.649667
C	-1.40731	-0.159282	1.42561
H	-2.01659	0.736837	1.1811
H	-2.06555	-1.0521	1.43671
H	-0.988841	-0.0236202	2.4468
N	-1.45681	-1.63283	-1.26496
C	-2.0018	-1.89064	-2.57747
H	-1.58601	-2.32307	-0.560723
H	-2.51424	-2.87753	-2.60361
H	-1.19368	-1.89494	-3.34442
H	-2.73978	-1.10461	-2.85798
C	9.23103	-1.63424	2.77531
C	9.63177	-1.60161	1.3507
O	9.68227	-2.62582	0.683725
H	9.02757	-2.68508	3.07563
H	8.31065	-1.03225	2.92784
H	10.0465	-1.23012	3.41156
N	9.93277	-0.40275	0.8462
C	10.3806	-0.216951	-0.511562
C	11.2681	1.01273	-0.552801
O	11.3642	1.75311	0.424089
H	9.9265	0.416427	1.41256
H	10.9882	-1.0634	-0.806288
C	9.18111	-0.0514027	-1.47029
H	8.56323	0.823155	-1.17462
H	9.51252	0.0785721	-2.52091
H	8.54127	-0.959248	-1.41775
N	11.9484	1.25499	-1.69059
C	12.8215	2.39822	-1.82042
H	11.8609	0.642171	-2.46897
H	13.2896	2.42303	-2.82914
H	13.6332	2.36106	-1.05821
H	12.2534	3.3453	-1.67387
