44
  This energy is 0 and Call times are: 17855
C	0.568476	0.130794	3.43109
C	-0.108219	-0.436191	2.24292
O	-0.768604	-1.46298	2.32041
H	0.379141	-0.524292	4.3091
H	0.174025	1.14569	3.64823
H	1.66347	0.189646	3.25613
N	0.0462729	0.231314	1.09708
C	-0.515878	-0.22001	-0.151457
C	0.368033	0.282691	-1.27731
O	1.27249	1.08595	-1.0572
H	0.620491	1.04312	1.04135
H	-0.493818	-1.30222	-0.18269
C	-1.96064	0.297452	-0.325056
H	-1.98246	1.4079	-0.30365
H	-2.40943	-0.0548007	-1.27639
H	-2.58753	-0.0760227	0.513917
N	0.130131	-0.188739	-2.51714
C	0.923442	0.228661	-3.64967
H	-0.603607	-0.841315	-2.67476
H	0.573126	-0.269768	-4.5803
H	1.99577	-0.0312368	-3.49524
H	0.852753	1.33105	-3.79417
C	99.0444	-2.55756	2.35978
C	99.6293	-1.32323	1.7893
O	100.479	-0.686216	2.39638
H	99.4874	-2.74469	3.36208
H	99.2643	-3.42466	1.7021
H	97.9449	-2.44542	2.46804
N	99.1771	-0.951837	0.589323
C	99.6195	0.249033	-0.0745382
C	98.4949	0.737234	-0.968118
O	97.4968	0.0452103	-1.15921
H	98.4556	-1.45822	0.125779
H	99.8018	1.01926	0.664468
C	100.894	-0.0173145	-0.904951
H	100.705	-0.799944	-1.67022
H	101.253	0.90298	-1.40994
H	101.701	-0.381128	-0.2321
N	98.6282	1.95346	-1.53295
C	97.6068	2.5032	-2.39365
H	99.4413	2.50036	-1.36317
H	97.9012	3.51181	-2.75873
H	96.6407	2.59667	-1.84666
H	97.4411	1.84493	-3.27703
