44
  This energy is -0.0301 and Call times are: 14827
C	-0.759994	-0.543049	-3.35264
C	0.19995	-0.480022	-2.22762
O	1.34139	-0.903991	-2.34496
H	-0.271018	-1.02677	-4.22602
H	-1.07947	0.48046	-3.64093
H	-1.65033	-1.14014	-3.06301
N	-0.250998	0.0583005	-1.09217
C	0.552073	0.149491	0.101696
C	-0.377128	0.116081	1.30046
O	-1.5958	0.189319	1.15489
H	-1.19505	0.361642	-0.9993
H	1.19458	-0.719708	0.167281
C	1.39223	1.4454	0.103788
H	0.733022	2.33774	0.0471538
H	2.0254	1.52056	1.01151
H	2.05882	1.45205	-0.786136
N	0.181045	-0.00469021	2.52106
C	-0.624173	-0.0506396	3.71927
H	1.16885	-0.0667007	2.61837
H	0.0185577	-0.152592	4.62134
H	-1.32495	-0.916226	3.68861
H	-1.22867	0.879454	3.82251
C	0.749809	1.01937	1.43961
C	2.07699	1.3076	0.850829
O	2.40368	2.44856	0.554365
H	0.172355	1.96552	1.52451
H	0.867761	0.578284	2.45168
H	0.189025	0.31301	0.791815
N	2.88334	0.26015	0.663671
C	4.18791	0.376795	0.061131
C	4.50872	-0.935094	-0.629954
O	3.7899	-1.92055	-0.475456
H	2.58761	-0.66774	0.872051
H	4.16176	1.14515	-0.701475
C	5.2592	0.704997	1.12408
H	5.2937	-0.0882662	1.90099
H	6.26597	0.811041	0.67055
H	4.99992	1.66461	1.62232
N	5.59936	-0.975023	-1.42048
C	5.98018	-2.17827	-2.12286
H	6.16635	-0.166203	-1.53628
H	6.9034	-2.00963	-2.7199
H	5.1695	-2.50228	-2.81503
H	6.17331	-3.00802	-1.40498
