44
  This energy is -0.139 and Call times are: 2251
C	0.191301	3.32926	-0.996063
C	0.45776	2.24105	-0.0286168
O	1.20961	2.40891	0.921623
H	0.778352	4.2284	-0.708341
H	-0.888259	3.58864	-0.992524
H	0.492462	3.01526	-2.01773
N	-0.162396	1.08066	-0.255043
C	0.0307874	-0.0828068	0.574168
C	-0.191415	-1.31567	-0.281539
O	-0.640678	-1.21818	-1.42188
H	-0.739352	0.946763	-1.05571
H	1.05716	-0.109748	0.918344
C	-0.942456	-0.0733936	1.77331
H	-1.99574	-0.0564071	1.4207
H	-0.794156	-0.957229	2.42704
H	-0.767399	0.841245	2.38088
N	0.128556	-2.51186	0.25023
C	-0.0435175	-3.7392	-0.491521
H	0.494667	-2.57016	1.17307
H	0.275998	-4.61418	0.116382
H	0.562722	-3.72161	-1.4261
H	-1.11151	-3.88045	-0.775409
C	6.8577	2.96049	1.27991
C	5.77587	1.95696	1.16275
O	4.81037	1.97644	1.91363
H	6.63079	3.6484	2.1232
H	6.93361	3.55246	0.343666
H	7.82721	2.45664	1.47807
N	5.91783	1.0407	0.20217
C	4.96966	-0.0250895	-0.00664748
C	5.71006	-1.20637	-0.60495
O	6.87546	-1.09453	-0.980478
H	6.72926	1.01316	-0.374605
H	4.57366	-0.343379	0.949648
C	3.82736	0.428131	-0.942065
H	4.23212	0.74481	-1.92692
H	3.08333	-0.379409	-1.0996
H	3.30467	1.29823	-0.488126
N	5.04796	-2.37624	-0.699992
C	5.67313	-3.55602	-1.25085
H	4.10672	-2.4482	-0.386995
H	4.96696	-4.41538	-1.24293
H	6.57346	-3.83677	-0.657667
H	5.99476	-3.37592	-2.30217
