44
  This energy is -2.2415 and Call times are: 15976
C	-3.07219	-1.11954	-1.19204
C	-2.15121	-0.0376056	-0.776894
O	-2.41527	1.13679	-0.994775
H	-3.95171	-0.675715	-1.70715
H	-3.42366	-1.68491	-0.303465
H	-2.55815	-1.81241	-1.89118
N	-1.02927	-0.417126	-0.160781
C	-0.0168022	0.517531	0.26335
C	1.32218	-0.195471	0.245985
O	1.38651	-1.41036	0.0681767
H	-0.809113	-1.37917	-0.0271282
H	0.041011	1.32983	-0.450419
C	-0.323462	1.05934	1.67673
H	-0.372442	0.227401	2.41125
H	0.441627	1.79059	2.00905
H	-1.31114	1.56999	1.66771
N	2.43026	0.550703	0.423234
C	3.74833	-0.039922	0.41662
H	2.35824	1.53292	0.561555
H	4.52808	0.736709	0.578005
H	3.94927	-0.541107	-0.55791
H	3.84111	-0.803088	1.22291
C	8.57388	1.36462	3.08008
C	8.31503	1.48503	1.62762
O	8.2215	2.57981	1.08993
H	8.63768	2.38042	3.52722
H	9.53333	0.833999	3.25512
H	7.74847	0.807113	3.57095
N	8.18933	0.341361	0.950405
C	7.8935	0.297441	-0.459955
C	7.14652	-0.991514	-0.746634
O	7.03613	-1.86064	0.115997
H	8.22725	-0.541739	1.40926
H	7.23165	1.11667	-0.711807
C	9.1888	0.370459	-1.29787
H	9.86359	-0.47571	-1.04745
H	8.9734	0.351461	-2.38588
H	9.72293	1.31773	-1.06608
N	6.60564	-1.14151	-1.97177
C	5.87231	-2.33207	-2.33369
H	6.70205	-0.425404	-2.65512
H	5.5067	-2.26527	-3.38207
H	4.99278	-2.47043	-1.66395
H	6.5194	-3.23456	-2.24464
