44
  This energy is -2.1133 and Call times are: 10057
C	0.917271	2.96613	1.5727
C	0.0821236	2.20027	0.62026
O	-0.913193	2.69616	0.110499
H	0.474898	3.97534	1.71991
H	1.94692	3.07987	1.17317
H	0.956607	2.44464	2.55229
N	0.475116	0.951766	0.357276
C	-0.258836	0.0695497	-0.515403
C	-0.00730011	-1.35739	-0.06581
O	0.842749	-1.60866	0.786244
H	1.26433	0.548298	0.811391
H	-1.31924	0.259969	-0.406229
C	0.176944	0.259049	-1.9849
H	1.26262	0.0535586	-2.0994
H	-0.390845	-0.404921	-2.66848
H	-0.00876446	1.31206	-2.28989
N	-0.752417	-2.3302	-0.626582
C	-0.587252	-3.71673	-0.257219
H	-1.43817	-2.10679	-1.31135
H	-1.29072	-4.36222	-0.827917
H	-0.783985	-3.85969	0.830041
H	0.451959	-4.0585	-0.467873
C	8.04747	1.12833	2.79033
C	7.63297	0.0557622	1.85817
O	8.16878	-1.04371	1.87981
H	8.8771	0.757872	3.43091
H	7.19571	1.42159	3.43936
H	8.40069	2.01424	2.22158
N	6.65371	0.358617	1.00275
C	6.17239	-0.566688	0.00741818
C	5.64885	0.234723	-1.16953
O	5.5305	1.45637	-1.09683
H	6.2555	1.27086	0.969755
H	6.99928	-1.16601	-0.352711
C	5.06049	-1.46947	0.585263
H	4.20742	-0.855687	0.945243
H	4.69121	-2.19573	-0.167527
H	5.4637	-2.04039	1.45003
N	5.32917	-0.438948	-2.29202
C	4.82837	0.240021	-3.46436
H	5.43566	-1.4269	-2.33311
H	4.62425	-0.485859	-4.28208
H	5.57012	0.984709	-3.83385
H	3.88277	0.781023	-3.23135
