44
  This energy is -0.1898 and Call times are: 13221
C	0.503222	-0.576431	3.39517
C	-0.292331	-0.711704	2.15423
O	-1.24784	-1.47319	2.09475
H	0.0947485	-1.26125	4.1698
H	0.449098	0.466296	3.77271
H	1.56322	-0.844602	3.20133
N	0.0931233	0.0362365	1.1177
C	-0.555599	-0.0182943	-0.168669
C	0.467685	0.339554	-1.22998
O	1.57626	0.769119	-0.916534
H	0.897807	0.620824	1.16878
H	-0.879922	-1.03313	-0.362457
C	-1.75487	0.953295	-0.223368
H	-1.42108	1.99596	-0.0350605
H	-2.27122	0.91045	-1.20422
H	-2.48694	0.677539	0.566817
N	0.119493	0.161373	-2.51957
C	1.02984	0.469348	-3.59781
H	-0.780608	-0.191139	-2.75329
H	0.559581	0.255179	-4.58281
H	1.95907	-0.139465	-3.51331
H	1.3185	1.54509	-3.57336
C	4.47467	1.20761	-0.501659
C	5.90534	1.40715	-0.178376
O	6.39316	2.52794	-0.130627
H	3.99952	2.19484	-0.689972
H	3.95559	0.715017	0.347258
H	4.37197	0.579899	-1.41188
N	6.62108	0.304032	0.0523348
C	8.03412	0.335279	0.336791
C	8.64255	-0.968198	-0.145208
O	7.92828	-1.8948	-0.523274
H	6.21934	-0.603493	-0.0304566
H	8.49488	1.13514	-0.229378
C	8.28854	0.525361	1.84821
H	7.82503	-0.300617	2.4287
H	9.37297	0.564936	2.07835
H	7.82788	1.48123	2.18055
N	9.98654	-1.06657	-0.150665
C	10.6548	-2.26651	-0.597583
H	10.5478	-0.304587	0.155105
H	11.7589	-2.15137	-0.526811
H	10.393	-2.49048	-1.6571
H	10.3525	-3.13974	0.0247089
