44
  This energy is 6.51426e-320 and Call times are: 10885
C	-2.9297	1.76171	0.652608
C	-1.46573	1.6995	0.442729
O	-0.804072	2.71729	0.291915
H	-3.25982	2.82293	0.625785
H	-3.19351	1.32814	1.64011
H	-3.45539	1.20147	-0.149185
N	-0.919846	0.481262	0.426039
C	0.484718	0.258115	0.189471
C	0.645314	-1.10762	-0.45125
O	-0.307021	-1.88103	-0.532575
H	-1.47739	-0.339761	0.509315
H	0.84858	0.991658	-0.519155
C	1.28531	0.335195	1.50793
H	0.919409	-0.424215	2.23143
H	2.37015	0.17877	1.33713
H	1.14678	1.34013	1.9632
N	1.86138	-1.4338	-0.931684
C	2.1075	-2.7094	-1.56292
H	2.61866	-0.793096	-0.860314
H	3.16738	-2.78777	-1.89114
H	1.45368	-2.83847	-2.45575
H	1.89625	-3.5447	-0.856676
C	10.8898	0.179694	-0.498402
C	9.56817	0.813291	-0.290844
O	9.47029	2.00789	-0.046371
H	11.6871	0.944714	-0.37631
H	10.9537	-0.245797	-1.52194
H	11.0487	-0.62722	0.247723
N	8.50463	0.011595	-0.38323
C	7.1568	0.473975	-0.163872
C	6.33447	-0.692454	0.3507
O	6.79477	-1.83252	0.358762
H	8.60285	-0.966623	-0.54228
H	7.16059	1.23199	0.609447
C	6.54641	1.03341	-1.4676
H	6.53262	0.25304	-2.25809
H	5.51352	1.40541	-1.30859
H	7.16868	1.88057	-1.83016
N	5.09238	-0.430483	0.803026
C	4.23873	-1.47629	1.31658
H	4.73895	0.499061	0.792269
H	3.25866	-1.06094	1.63936
H	4.71306	-1.976	2.19213
H	4.05225	-2.24983	0.536828
