44
  This energy is 0 and Call times are: 18499
C	1.77398	-0.622503	-2.92885
C	1.31813	0.280744	-1.84835
O	1.80212	1.39552	-1.70889
H	2.57999	-0.123238	-3.50934
H	0.93122	-0.857108	-3.61257
H	2.17281	-1.56469	-2.49723
N	0.36137	-0.190343	-1.04519
C	-0.153839	0.554972	0.0762499
C	-0.629494	-0.434425	1.12334
O	-0.69162	-1.63635	0.871891
H	0.00623496	-1.11531	-1.14611
H	0.647386	1.13324	0.519273
C	-1.31137	1.47936	-0.360643
H	-2.13808	0.885549	-0.805595
H	-1.7075	2.06893	0.491418
H	-0.942542	2.18949	-1.13267
N	-0.970468	0.0512161	2.33327
C	-1.42913	-0.815458	3.39378
H	-0.909613	1.02633	2.51908
H	-1.65972	-0.228012	4.30973
H	-0.650465	-1.5705	3.64845
H	-2.35056	-1.36037	3.08526
C	142.616	-2.85564	1.2271
C	142.086	-1.48441	1.39889
O	141.971	-0.984346	2.50944
H	142.844	-3.28894	2.22514
H	143.548	-2.83271	0.623833
H	141.864	-3.49632	0.720578
N	141.742	-0.83694	0.283076
C	141.171	0.486934	0.292782
C	140.286	0.629447	-0.931221
O	140.282	-0.231289	-1.80919
H	141.802	-1.2724	-0.610564
H	140.537	0.596157	1.16375
C	142.277	1.5647	0.289664
H	142.922	1.45965	-0.609077
H	141.851	2.58842	0.311055
H	142.917	1.43633	1.18981
N	139.504	1.72395	-1.01352
C	138.625	1.94217	-2.13871
H	139.518	2.40737	-0.291148
H	138.066	2.89658	-2.02168
H	137.887	1.11225	-2.22739
H	139.207	1.9902	-3.08794
