44
  This energy is -0.7939 and Call times are: 7120
C	-0.350073	-1.34479	3.19087
C	0.434831	-1.09441	1.96109
O	1.63409	-1.33146	1.91634
H	0.324224	-1.73516	3.98385
H	-1.14358	-2.09554	2.99222
H	-0.814955	-0.401265	3.54688
N	-0.23669	-0.598717	0.919106
C	0.398281	-0.263202	-0.331015
C	-0.394449	0.856504	-0.978619
O	-1.47951	1.20741	-0.519025
H	-1.20444	-0.3726	0.983875
H	1.39316	0.117136	-0.135587
C	0.461905	-1.4918	-1.26468
H	-0.559196	-1.87598	-1.47397
H	0.961157	-1.24978	-2.22525
H	1.03965	-2.30122	-0.767279
N	0.137377	1.45247	-2.06398
C	-0.542248	2.5307	-2.74347
H	1.0184	1.15737	-2.41865
H	0.05542	2.88746	-3.61107
H	-0.70467	3.38971	-2.05282
H	-1.53679	2.19508	-3.11682
C	6.44537	-0.027373	-3.45663
C	6.95891	-0.617392	-2.19992
O	7.41798	-1.75097	-2.17413
H	6.54166	-0.770739	-4.2776
H	7.0306	0.878258	-3.72136
H	5.37493	0.244898	-3.34211
N	6.88908	0.152039	-1.11112
C	7.30955	-0.29899	0.192078
C	6.49362	0.441541	1.23488
O	5.76433	1.37837	0.915201
H	6.47519	1.05743	-1.13967
H	7.08426	-1.35315	0.29512
C	8.81805	-0.0443643	0.403821
H	9.04802	1.03827	0.308645
H	9.15694	-0.399987	1.39841
H	9.39507	-0.589243	-0.374955
N	6.59236	0.0297632	2.51422
C	5.84916	0.670543	3.57404
H	7.18462	-0.73274	2.75275
H	6.06482	0.188198	4.55285
H	4.75372	0.601307	3.38302
H	6.11936	1.74887	3.64722
