44
  This energy is -5.0695 and Call times are: 7494
C	1.19	-2.6083	1.97316
C	1.26218	-1.74382	0.77374
O	2.24361	-1.75491	0.0436089
H	2.13224	-3.19142	2.06286
H	0.337496	-3.31418	1.8854
H	1.06333	-1.98761	2.88518
N	0.206106	-0.960528	0.542351
C	0.147768	-0.0341073	-0.560781
C	-0.751958	1.12039	-0.161794
O	-1.41414	1.07425	0.873148
H	-0.567972	-0.932658	1.16836
H	1.13544	0.372983	-0.738005
C	-0.389698	-0.724711	-1.83335
H	-1.40723	-1.13331	-1.65526
H	-0.426322	-0.0252349	-2.69353
H	0.279566	-1.57099	-2.10215
N	-0.789965	2.19372	-0.975754
C	-1.613	3.34186	-0.674787
H	-0.243893	2.21425	-1.80669
H	-1.50714	4.11917	-1.46333
H	-1.319	3.79079	0.301583
H	-2.68637	3.05027	-0.611446
C	4.52167	-1.77213	2.86371
C	5.515	-1.07565	2.01555
O	6.63252	-0.81104	2.43689
H	4.96353	-1.96245	3.86591
H	4.24031	-2.74316	2.40471
H	3.61408	-1.14384	2.98456
N	5.12099	-0.75639	0.780554
C	5.96087	-0.0391854	-0.146144
C	5.06548	0.74881	-1.08364
O	3.84768	0.579526	-1.08195
H	4.19449	-0.941929	0.465857
H	6.56542	0.675079	0.398811
C	6.85794	-1.01108	-0.943597
H	6.23801	-1.73743	-1.51118
H	7.51933	-0.469851	-1.65081
H	7.49865	-1.58261	-0.237065
N	5.65208	1.64085	-1.90594
C	4.87992	2.43997	-2.82863
H	6.63848	1.76666	-1.88987
H	5.54276	3.11251	-3.41647
H	4.14049	3.06798	-2.28078
H	4.32085	1.7894	-3.5395
