44
  This energy is 1.51733e-319 and Call times are: 12913
C	-0.198944	-3.08451	-1.59966
C	-0.629261	-2.12805	-0.555074
O	-1.63051	-2.33304	0.117146
H	-0.921152	-3.92846	-1.64489
H	0.808111	-3.48577	-1.35971
H	-0.170342	-2.58256	-2.58977
N	0.130599	-1.04198	-0.395538
C	-0.184005	-0.00101186	0.551013
C	0.379732	1.30467	0.0228584
O	1.12189	1.31952	-0.957289
H	0.919559	-0.868961	-0.97818
H	-1.25911	0.113144	0.612238
C	0.406495	-0.322711	1.94136
H	1.51057	-0.429508	1.88102
H	0.159307	0.464705	2.68257
H	-0.0137913	-1.28589	2.30467
N	0.0308575	2.43962	0.660198
C	0.51407	3.72959	0.225841
H	-0.574012	2.40779	1.44899
H	0.115473	4.53849	0.877014
H	0.197083	3.93521	-0.82226
H	1.62693	3.76542	0.263271
C	9.32512	2.32066	-2.33708
C	9.12713	1.12223	-1.49108
O	8.01841	0.626287	-1.34554
H	8.34506	2.6451	-2.74947
H	10.0094	2.08577	-3.17929
H	9.75288	3.14875	-1.73345
N	10.2173	0.624236	-0.903017
C	10.1765	-0.512226	-0.016824
C	11.3186	-0.381393	0.973113
O	12.1798	0.484431	0.830238
H	11.1062	1.06323	-0.998211
H	9.25412	-0.490153	0.550091
C	10.2944	-1.83333	-0.80805
H	11.2454	-1.861	-1.38154
H	10.2502	-2.71635	-0.138089
H	9.45311	-1.90404	-1.53167
N	11.3471	-1.23941	2.01187
C	12.3925	-1.18696	3.00714
H	10.6391	-1.93054	2.11276
H	12.2403	-1.97309	3.77918
H	12.4026	-0.194996	3.51428
H	13.3904	-1.34484	2.53769
