44
  This energy is -5.4961 and Call times are: 9395
C	0.52983	-2.8695	1.89682
C	0.416761	-2.16823	0.598138
O	0.749343	-2.71201	-0.445941
H	0.956296	-3.8827	1.73121
H	-0.471924	-2.97324	2.36423
H	1.19939	-2.30499	2.57954
N	-0.0615998	-0.922393	0.63611
C	-0.189269	-0.0987568	-0.540276
C	-0.0596849	1.35256	-0.117867
O	-0.0421949	1.66311	1.07166
H	-0.289595	-0.478782	1.49814
H	0.629233	-0.312243	-1.21637
C	-1.54551	-0.340472	-1.23844
H	-2.38561	-0.111497	-0.548636
H	-1.65012	0.277835	-2.15347
H	-1.62183	-1.41032	-1.53162
N	0.0432879	2.27997	-1.09016
C	0.175845	3.68516	-0.783474
H	0.0313184	2.00887	-2.04694
H	0.246935	4.28633	-1.71662
H	1.09183	3.87007	-0.176806
H	-0.702761	4.04482	-0.200516
C	3.4814	-1.36017	-2.48756
C	3.71536	-0.420815	-1.36772
O	2.9272	0.482412	-1.12399
H	2.5422	-1.07972	-3.01207
H	3.38242	-2.39702	-2.10299
H	4.32398	-1.31267	-3.20926
N	4.82509	-0.615781	-0.651571
C	5.21	0.24216	0.441285
C	6.72293	0.218414	0.551028
O	7.3897	-0.577661	-0.107294
H	5.47769	-1.33011	-0.88759
H	4.9189	1.26048	0.215641
C	4.56377	-0.225433	1.76378
H	4.8705	-1.26641	2.00113
H	4.84142	0.435347	2.61042
H	3.45706	-0.207682	1.65784
N	7.30327	1.10312	1.3856
C	8.73708	1.15797	1.55096
H	6.74728	1.74212	1.90679
H	9.01899	1.95049	2.27876
H	9.23623	1.38021	0.580007
H	9.12721	0.183649	1.92463
