44
  This energy is -0.2171 and Call times are: 754
C	0.0583354	3.47391	-0.203067
C	-0.373942	2.14675	-0.695933
O	-1.24221	2.04115	-1.55114
H	-0.531871	4.2655	-0.713874
H	1.13545	3.63115	-0.4218
H	-0.111164	3.54935	0.891771
N	0.231899	1.08685	-0.155597
C	-0.111521	-0.269779	-0.502251
C	0.183634	-1.15314	0.695293
O	0.787144	-0.710599	1.67082
H	0.907759	1.18734	0.568959
H	-1.17555	-0.331096	-0.693872
C	0.688971	-0.743687	-1.73508
H	1.78046	-0.690956	-1.53529
H	0.423312	-1.78221	-2.02041
H	0.46361	-0.0782962	-2.59695
N	-0.245881	-2.42971	0.651618
C	-0.0157035	-3.34258	1.747
H	-0.736101	-2.76835	-0.144676
H	-0.444338	-4.34383	1.5212
H	-0.487975	-2.96181	2.68148
H	1.07565	-3.46265	1.93589
C	5.0895	-3.26634	1.17747
C	4.57364	-1.88201	1.27058
O	3.67861	-1.59124	2.05211
H	4.52936	-3.9154	1.88515
H	6.16734	-3.29174	1.44274
H	4.95335	-3.65694	0.146952
N	5.13575	-0.983369	0.458875
C	4.71088	0.393244	0.404326
C	4.98976	0.919376	-0.991017
O	5.6418	0.256418	-1.7954
H	5.83499	-1.24378	-0.200757
H	3.6404	0.443134	0.559895
C	5.45182	1.24158	1.46101
H	6.54947	1.19922	1.29546
H	5.12328	2.30086	1.43836
H	5.23978	0.833778	2.47347
N	4.49127	2.12889	-1.31441
C	4.701	2.70822	-2.62077
H	3.96265	2.64855	-0.651394
H	4.21336	3.70543	-2.69164
H	4.27479	2.05249	-3.41427
H	5.78895	2.83443	-2.82472
