44
  This energy is -1.1811 and Call times are: 11527
C	-1.04127	2.99422	1.43634
C	-1.30995	1.63142	0.924747
O	-2.38421	1.08107	1.12349
H	-1.92973	3.35788	1.99694
H	-0.840506	3.68715	0.592375
H	-0.165999	2.98083	2.11958
N	-0.320799	1.04713	0.244636
C	-0.417663	-0.293172	-0.277637
C	0.979387	-0.882234	-0.330681
O	1.967	-0.180912	-0.119785
H	0.562497	1.4917	0.126264
H	-0.998459	-0.901308	0.404622
C	-1.05884	-0.292769	-1.68267
H	-0.457627	0.32241	-2.38562
H	-1.15165	-1.32042	-2.0899
H	-2.07706	0.149744	-1.6213
N	1.09388	-2.19612	-0.6075
C	2.3825	-2.84518	-0.67365
H	0.282921	-2.74804	-0.771203
H	2.26697	-3.92529	-0.912876
H	2.9171	-2.75706	0.299852
H	3.01815	-2.37769	-1.46013
C	6.83166	-2.40109	1.48993
C	5.50183	-1.82887	1.18126
O	4.47521	-2.45268	1.41217
H	6.70334	-3.42072	1.91387
H	7.35818	-1.76641	2.23338
H	7.44234	-2.47066	0.565105
N	5.49198	-0.60816	0.640736
C	4.27761	0.0615358	0.246567
C	4.60573	1.00052	-0.898951
O	5.77208	1.21262	-1.22507
H	6.33737	-0.129776	0.420905
H	3.57182	-0.66952	-0.127651
C	3.66976	0.844207	1.43113
H	4.38949	1.60153	1.80863
H	2.7268	1.35302	1.14399
H	3.44499	0.138559	2.26051
N	3.57611	1.58184	-1.54546
C	3.79145	2.4856	-2.65135
H	2.63911	1.39466	-1.26965
H	2.82188	2.85829	-3.0492
H	4.33539	1.97284	-3.47748
H	4.39902	3.36234	-2.32991
