44
  This energy is 0 and Call times are: 14995
C	-3.31598	-0.649436	-0.833795
C	-2.18152	0.279133	-0.629057
O	-2.24608	1.44644	-0.989094
H	-4.14174	-0.112441	-1.34919
H	-3.68569	-1.02343	0.144052
H	-2.9988	-1.50848	-1.46191
N	-1.09786	-0.229164	-0.0377125
C	0.100274	0.539594	0.190413
C	1.28107	-0.41291	0.18774
O	1.10828	-1.63016	0.174578
H	-1.0451	-1.19166	0.212664
H	0.242289	1.23171	-0.630216
C	0.0208393	1.29978	1.53244
H	-0.114284	0.5894	2.37573
H	0.931786	1.90647	1.71309
H	-0.854817	1.98481	1.51493
N	2.51725	0.123638	0.191702
C	3.70068	-0.704372	0.184174
H	2.63687	1.11092	0.198216
H	4.61939	-0.0773353	0.1887
H	3.72202	-1.35078	-0.723005
H	3.72313	-1.36606	1.08017
C	5.84525	-2.32772	0.40953
C	6.32988	-0.970726	0.0706318
O	5.5905	-0.145727	-0.448121
H	4.78116	-2.42496	0.102734
H	5.92081	-2.49884	1.50395
H	6.44514	-3.09323	-0.12638
N	7.60631	-0.707028	0.359727
C	8.23267	0.55405	0.0500449
C	9.71357	0.306	-0.166749
O	10.2132	-0.787608	0.0903422
H	8.20687	-1.40218	0.744372
H	7.82967	0.934114	-0.880418
C	8.01553	1.57267	1.19044
H	8.43815	1.18778	2.14296
H	8.48135	2.55216	0.957794
H	6.92499	1.73275	1.33682
N	10.4524	1.32101	-0.65646
C	11.8686	1.17594	-0.900454
H	10.0295	2.19727	-0.862217
H	12.2971	2.1202	-1.30298
H	12.0589	0.362525	-1.63764
H	12.4057	0.920597	0.0416397
