44
  This energy is -2.2503 and Call times are: 1910
C	-0.529449	1.87422	-2.88438
C	-0.581969	0.602542	-2.1286
O	-1.18657	-0.36783	-2.56362
H	-1.11474	1.76778	-3.82352
H	0.521439	2.12311	-3.14212
H	-0.966374	2.69694	-2.27995
N	0.0601173	0.580786	-0.958286
C	0.0628003	-0.570409	-0.0903557
C	0.21939	-0.0851372	1.33847
O	0.481287	1.0919	1.5787
H	0.513349	1.39133	-0.598482
H	-0.89509	-1.07093	-0.157878
C	1.20718	-1.53872	-0.461828
H	2.19088	-1.02873	-0.382524
H	1.21137	-2.43594	0.190478
H	1.07674	-1.87471	-1.51371
N	0.0529905	-0.986183	2.32663
C	0.17739	-0.614963	3.71692
H	-0.162613	-1.93316	2.11257
H	0.0051162	-1.49446	4.37572
H	-0.565697	0.171908	3.98136
H	1.19508	-0.213291	3.92695
C	4.35133	-3.3173	0.333066
C	5.2816	-2.20155	0.617403
O	6.1484	-2.30292	1.47461
H	4.57916	-4.16756	1.01204
H	4.46894	-3.65522	-0.717991
H	3.30262	-2.99362	0.50192
N	5.11727	-1.09249	-0.107414
C	5.91748	0.0913518	0.0842495
C	5.08535	1.29478	-0.316882
O	3.99874	1.15162	-0.874104
H	4.38102	-1.01043	-0.773042
H	6.15207	0.197523	1.13606
C	7.21206	0.0240689	-0.755262
H	6.97185	-0.0742532	-1.83539
H	7.84346	0.923769	-0.605645
H	7.80121	-0.868282	-0.450387
N	5.57636	2.51719	-0.0329102
C	4.85233	3.72008	-0.372036
H	6.45553	2.6127	0.422071
H	5.42025	4.62301	-0.0567294
H	3.85942	3.73648	0.133081
H	4.68144	3.77926	-1.47133
