44
  This energy is -2.9812 and Call times are: 15219
C	-3.01887	-0.510099	1.65496
C	-2.11211	0.311071	0.821536
O	-2.51182	1.31935	0.255836
H	-4.03745	-0.0650314	1.63761
H	-2.6559	-0.536165	2.70392
H	-3.07221	-1.54528	1.25665
N	-0.849479	-0.111738	0.724665
C	0.138367	0.557882	-0.0842409
C	1.15386	-0.472808	-0.540309
O	1.14254	-1.6137	-0.0821125
H	-0.549224	-0.956816	1.15775
H	-0.337234	0.956717	-0.971577
C	0.831316	1.68529	0.712002
H	1.32834	1.2751	1.61685
H	1.58448	2.21761	0.0956372
H	0.0683845	2.42362	1.0424
N	2.05646	-0.0940291	-1.46653
C	3.05761	-1.00827	-1.96458
H	2.04716	0.832278	-1.82838
H	3.70487	-0.509613	-2.71931
H	2.57836	-1.89273	-2.44345
H	3.70432	-1.37342	-1.13417
C	5.02576	0.546251	3.00188
C	5.86148	1.01191	1.87233
O	6.08802	2.20175	1.70093
H	4.67266	1.42494	3.58418
H	5.61855	-0.113096	3.67017
H	4.14366	-0.0105592	2.62116
N	6.3441	0.0669107	1.06212
C	7.13729	0.368153	-0.103492
C	6.91901	-0.734743	-1.12209
O	6.30127	-1.7549	-0.823116
H	6.11722	-0.894236	1.19088
H	6.78466	1.29106	-0.546783
C	8.63384	0.479797	0.261385
H	8.99873	-0.470336	0.706518
H	9.25354	0.725189	-0.625334
H	8.7689	1.28732	1.01371
N	7.41761	-0.549915	-2.36034
C	7.25422	-1.54239	-3.39691
H	7.91103	0.283983	-2.58443
H	7.73349	-1.20591	-4.34259
H	6.1739	-1.72645	-3.5977
H	7.71831	-2.50844	-3.09279
