44
  This energy is -0.4666 and Call times are: 15499
C	0.602279	3.42384	0.165163
C	0.0700865	2.16529	0.734352
O	-0.291164	2.10133	1.90132
H	0.616908	4.2066	0.954439
H	-0.0421115	3.76839	-0.670774
H	1.63724	3.26841	-0.206025
N	0.0116091	1.11832	-0.0919727
C	-0.442539	-0.183832	0.328389
C	0.246227	-1.22572	-0.532781
O	0.909863	-0.893735	-1.51313
H	0.347572	1.17487	-1.02781
H	-0.134255	-0.356418	1.35201
C	-1.9769	-0.301702	0.197703
H	-2.29273	-0.135153	-0.854225
H	-2.34043	-1.29517	0.531451
H	-2.45983	0.475152	0.829865
N	0.11011	-2.51883	-0.178696
C	0.734085	-3.57937	-0.935063
H	-0.427474	-2.76751	0.620199
H	0.504867	-4.57055	-0.485345
H	1.84055	-3.45026	-0.953358
H	0.369	-3.57881	-1.98761
C	6.88877	-3.21229	-0.817177
C	7.93219	-2.16535	-0.737312
O	9.11139	-2.43129	-0.92486
H	7.36656	-4.19063	-1.04172
H	6.16606	-2.97147	-1.62492
H	6.34929	-3.28947	0.150331
N	7.51332	-0.930757	-0.449711
C	8.41489	0.183732	-0.295959
C	7.78426	1.17304	0.665886
O	6.62087	1.03464	1.0388
H	6.55501	-0.737732	-0.259341
H	9.33659	-0.162018	0.1552
C	8.69731	0.856718	-1.65705
H	7.75325	1.22099	-2.11543
H	9.40121	1.70785	-1.55395
H	9.15107	0.112439	-2.34733
N	8.54625	2.19677	1.09874
C	8.03327	3.18429	2.01951
H	9.48672	2.28967	0.788953
H	8.81108	3.94366	2.25532
H	7.71235	2.70385	2.97212
H	7.15224	3.70831	1.58323
