44
  This energy is -0.4142 and Call times are: 11279
C	-0.401115	-0.270744	3.44652
C	-0.83521	0.217926	2.1184
O	-1.93861	0.721351	1.95878
H	-1.22006	-0.113011	4.18158
H	0.497511	0.2869	3.78452
H	-0.166265	-1.35496	3.39735
N	0.038394	0.0753165	1.11897
C	-0.256931	0.463637	-0.237699
C	0.550103	-0.420975	-1.16921
O	1.41575	-1.17497	-0.728899
H	0.916776	-0.373621	1.25597
H	-1.30383	0.277589	-0.442679
C	0.0848424	1.95135	-0.472542
H	1.16105	2.14061	-0.272569
H	-0.151078	2.26614	-1.50973
H	-0.511189	2.57939	0.225072
N	0.277052	-0.354562	-2.48719
C	0.989946	-1.16316	-3.44851
H	-0.429799	0.258626	-2.82399
H	0.621012	-0.965654	-4.47909
H	0.852858	-2.24678	-3.22884
H	2.08099	-0.939991	-3.41767
C	3.56336	1.58343	3.02226
C	4.48013	1.22936	1.91531
O	5.56989	1.77249	1.79765
H	4.02776	2.38007	3.64319
H	3.37322	0.695157	3.66066
H	2.60064	1.95956	2.61634
N	4.04956	0.295576	1.06381
C	4.81111	-0.12302	-0.0865682
C	3.83853	-0.588509	-1.1538
O	2.64253	-0.720981	-0.901336
H	3.14307	-0.107964	1.14915
H	5.34804	0.72728	-0.488214
C	5.79191	-1.25703	0.283952
H	5.24068	-2.13359	0.686225
H	6.39401	-1.57864	-0.590442
H	6.48881	-0.896665	1.07186
N	4.33191	-0.840912	-2.38217
C	3.48103	-1.28291	-3.46236
H	5.30184	-0.723992	-2.56826
H	4.07278	-1.43608	-4.39166
H	2.68844	-0.528487	-3.67193
H	2.98222	-2.24434	-3.20161
