44
  This energy is -3.3801 and Call times are: 11847
C	-3.02252	-0.203539	1.71336
C	-1.56836	0.0686863	1.66379
O	-0.991777	0.60148	2.60192
H	-3.43194	0.16233	2.68001
H	-3.21051	-1.29488	1.63351
H	-3.53878	0.322037	0.882501
N	-0.934117	-0.295778	0.546975
C	0.471744	-0.0574332	0.334116
C	0.706373	0.0873007	-1.15771
O	-0.188059	-0.163579	-1.96317
H	-1.4246	-0.691158	-0.224368
H	0.748951	0.881542	0.796839
C	1.32022	-1.21429	0.905967
H	1.04355	-2.17618	0.424032
H	2.40538	-1.03593	0.760598
H	1.12659	-1.30696	1.99696
N	1.92167	0.506621	-1.56176
C	2.23517	0.67891	-2.96112
H	2.63127	0.708615	-0.894871
H	3.28287	1.02986	-3.0891
H	1.55509	1.42866	-3.42658
H	2.11752	-0.282517	-3.51154
C	6.52892	0.461017	3.32443
C	6.581	-0.34958	2.08694
O	6.27153	-1.53306	2.09196
H	6.20049	-0.181	4.17048
H	5.80648	1.29563	3.20509
H	7.53418	0.872641	3.55484
N	6.98311	0.280933	0.980983
C	7.12569	-0.385252	-0.289617
C	8.20139	0.333183	-1.08227
O	8.66794	1.40005	-0.687508
H	7.27086	1.23416	1.00112
H	7.46914	-1.39893	-0.124927
C	5.79029	-0.385214	-1.06548
H	5.44286	0.654739	-1.2439
H	5.88356	-0.907494	-2.03967
H	5.01602	-0.908954	-0.463372
N	8.62816	-0.24385	-2.22284
C	9.65233	0.363823	-3.04014
H	8.24152	-1.10931	-2.52378
H	9.86501	-0.262575	-3.93436
H	10.5975	0.481899	-2.46214
H	9.33136	1.37274	-3.38684
