44
  This energy is -2.0136 and Call times are: 10825
C	0.981916	-1.5219	-2.97193
C	1.27744	-0.754356	-1.7412
O	2.42927	-0.555903	-1.38022
H	1.93597	-1.85755	-3.43344
H	0.435888	-0.884389	-3.69869
H	0.367216	-2.414	-2.72824
N	0.224304	-0.300374	-1.05769
C	0.351526	0.425384	0.181526
C	-0.894527	0.171018	1.00869
O	-1.86228	-0.413975	0.526038
H	-0.707944	-0.50501	-1.34212
H	1.19397	0.0353881	0.739046
C	0.528442	1.93716	-0.0801805
H	-0.34053	2.33992	-0.642948
H	0.641386	2.50528	0.865866
H	1.44159	2.09903	-0.693617
N	-0.895607	0.600623	2.28598
C	-2.03482	0.39838	3.15054
H	-0.10156	1.06837	2.65985
H	-1.84184	0.821742	4.16086
H	-2.25532	-0.687999	3.26205
H	-2.94014	0.893003	2.72996
C	5.41408	-2.72538	0.042481
C	4.0984	-2.10172	0.309311
O	3.12574	-2.7799	0.609986
H	5.3253	-3.82868	0.145946
H	6.16735	-2.35569	0.769578
H	5.74839	-2.48695	-0.989244
N	4.03885	-0.772406	0.20086
C	2.81878	-0.0275197	0.388283
C	2.90059	1.23325	-0.451557
O	3.95028	1.55379	-1.00574
H	4.82916	-0.237876	-0.0846997
H	1.98444	-0.609161	0.0165237
C	2.61158	0.326246	1.8773
H	3.4622	0.931892	2.25635
H	1.66838	0.887972	2.03654
H	2.56264	-0.610852	2.47378
N	1.7838	1.9777	-0.572279
C	1.76513	3.19095	-1.35576
H	0.94291	1.69986	-0.119742
H	0.756312	3.65888	-1.33212
H	2.02749	2.97712	-2.41724
H	2.50228	3.92622	-0.959342
