44
  This energy is 0.1868 and Call times are: 5662
C	-2.44111	-2.42699	-0.513237
C	-1.82098	-1.11767	-0.81701
O	-2.16052	-0.468518	-1.79667
H	-3.18851	-2.67061	-1.29932
H	-2.95402	-2.38844	0.470724
H	-1.6664	-3.22234	-0.495113
N	-0.879859	-0.695803	0.030745
C	-0.156476	0.537219	-0.156156
C	1.21254	0.383396	0.479215
O	1.47912	-0.597381	1.17111
H	-0.585396	-1.25431	0.800957
H	-0.00367456	0.704759	-1.21503
C	-0.916466	1.72394	0.475785
H	-1.06422	1.55741	1.56412
H	-0.376355	2.68128	0.326477
H	-1.91817	1.81268	0.00137833
N	2.12063	1.35237	0.250142
C	3.45109	1.28882	0.808742
H	1.88761	2.13629	-0.315767
H	4.04763	2.17743	0.505862
H	3.98142	0.374266	0.457157
H	3.40905	1.2572	1.92157
C	7.37145	-2.27411	-1.85442
C	6.69451	-1.85408	-0.606831
O	6.52866	-2.63745	0.31796
H	7.64752	-3.34831	-1.77874
H	8.29395	-1.676	-2.0093
H	6.69268	-2.13783	-2.72263
N	6.27981	-0.586133	-0.554602
C	5.56762	-0.0433903	0.575342
C	4.66997	1.07335	0.0766529
O	4.75847	1.48404	-1.07886
H	6.38558	0.0281625	-1.33133
H	4.92711	-0.808978	0.995153
C	6.54925	0.48694	1.64323
H	7.19949	1.2798	1.2159
H	6.01318	0.894902	2.52454
H	7.20126	-0.345184	1.9879
N	3.77291	1.58762	0.940838
C	2.87314	2.64914	0.55385
H	3.71348	1.23939	1.8705
H	2.21318	2.93427	1.40261
H	2.23018	2.32821	-0.297552
H	3.4437	3.55122	0.234693
