44
  This energy is -1.9372 and Call times are: 8084
C	-0.165419	2.94868	1.84137
C	-0.659935	1.59584	1.50015
O	-1.48955	1.03026	2.19891
H	-0.649102	3.29003	2.78233
H	-0.414922	3.66346	1.02923
H	0.93484	2.92773	1.98998
N	-0.150249	1.03777	0.399628
C	-0.501659	-0.290618	-0.0367932
C	0.676311	-0.86433	-0.801513
O	1.63803	-0.158442	-1.09906
H	0.554569	1.49379	-0.136227
H	-0.661606	-0.920568	0.829354
C	-1.76348	-0.26314	-0.926903
H	-1.5963	0.374546	-1.82102
H	-2.05235	-1.28168	-1.25804
H	-2.61053	0.16764	-0.3496
N	0.631238	-2.17005	-1.13181
C	1.70874	-2.8045	-1.85475
H	-0.153604	-2.72595	-0.878698
H	1.48472	-3.87971	-2.03072
H	2.66136	-2.73428	-1.28129
H	1.86307	-2.31213	-2.84212
C	4.88155	2.23448	2.19412
C	5.24835	0.861901	1.77863
O	5.10378	-0.0884079	2.53522
H	4.50499	2.21339	3.23987
H	4.08412	2.63421	1.533
H	5.76966	2.89928	2.14531
N	5.74197	0.727071	0.545526
C	6.18338	-0.538811	0.0151881
C	7.27062	-0.269685	-1.00806
O	7.51725	0.87654	-1.37826
H	5.89196	1.51574	-0.0438451
H	6.62701	-1.12429	0.81082
C	5.00907	-1.3057	-0.631448
H	4.56033	-0.709944	-1.4547
H	5.33337	-2.28829	-1.0313
H	4.22209	-1.48461	0.13339
N	7.95587	-1.32741	-1.48519
C	9.01175	-1.16771	-2.4577
H	7.74458	-2.24688	-1.17053
H	9.45323	-2.15323	-2.7243
H	9.8222	-0.518199	-2.05447
H	8.6212	-0.695075	-3.38788
