44
  This energy is -1.6197 and Call times are: 13557
C	-1.71105	-2.52309	1.67899
C	-1.67156	-1.36611	0.756508
O	-2.63722	-1.07534	0.0641387
H	-2.69943	-3.02522	1.59627
H	-1.56734	-2.1828	2.72603
H	-0.915047	-3.25076	1.41448
N	-0.532403	-0.670607	0.725308
C	-0.328115	0.454338	-0.152943
C	1.15347	0.547277	-0.465701
O	1.96861	-0.151775	0.133127
H	0.258967	-0.94409	1.26457
H	-0.844587	0.276038	-1.08787
C	-0.82668	1.76195	0.500364
H	-0.289668	1.95081	1.4543
H	-0.68756	2.6335	-0.171631
H	-1.91106	1.66836	0.727758
N	1.53705	1.41334	-1.42426
C	2.92504	1.56605	-1.79353
H	0.862364	1.96743	-1.90054
H	3.0364	2.32454	-2.59946
H	3.34228	0.600524	-2.16087
H	3.53106	1.89312	-0.917797
C	8.51827	-0.590902	1.53275
C	7.07974	-0.882425	1.34088
O	6.56698	-1.88325	1.82239
H	8.98165	-1.40583	2.13026
H	8.64507	0.369377	2.07546
H	9.03085	-0.530097	0.549574
N	6.38654	0.000488259	0.618158
C	4.98844	-0.168928	0.309679
C	4.70728	0.526965	-1.00875
O	5.55702	1.24094	-1.53779
H	6.82676	0.789082	0.198416
H	4.77856	-1.22202	0.169767
C	4.10137	0.415836	1.43057
H	4.3088	1.49857	1.56733
H	3.02259	0.279172	1.2113
H	4.32967	-0.102572	2.38737
N	3.50193	0.326446	-1.57703
C	3.14692	0.94294	-2.83404
H	2.82896	-0.257958	-1.13584
H	2.11531	0.656091	-3.13525
H	3.84826	0.625175	-3.63929
H	3.19317	2.05318	-2.75423
