44
  This energy is -0.2375 and Call times are: 12058
C	-1.80152	-1.10272	2.76608
C	-1.61245	-0.964958	1.30444
O	-2.30824	-1.58825	0.514638
H	-2.61504	-1.83411	2.96387
H	-2.08224	-0.124316	3.20956
H	-0.86634	-1.46851	3.24013
N	-0.647802	-0.132093	0.906721
C	-0.316819	0.0734361	-0.48136
C	1.15064	0.448599	-0.567153
O	1.79902	0.691534	0.448872
H	-0.0626711	0.336963	1.56206
H	-0.443926	-0.857064	-1.02047
C	-1.19622	1.18218	-1.09989
H	-1.05824	2.13964	-0.553748
H	-0.960461	1.3403	-2.17224
H	-2.26601	0.890056	-1.01891
N	1.71331	0.496392	-1.79073
C	3.10504	0.838702	-1.96988
H	1.17348	0.292571	-2.60074
H	3.37815	0.82343	-3.04803
H	3.75983	0.115224	-1.4322
H	3.31402	1.85709	-1.56943
C	1.75981	-3.0299	-0.492166
C	2.41916	-2.03144	0.379323
O	2.35321	-2.11322	1.59808
H	1.23263	-3.77757	0.139448
H	2.51587	-3.55387	-1.11391
H	1.01933	-2.53159	-1.15282
N	3.07903	-1.04862	-0.237938
C	3.73432	0.0197137	0.47467
C	3.74258	1.24741	-0.416548
O	3.39358	1.17383	-1.59319
H	3.08932	-0.972559	-1.2309
H	3.15817	0.266094	1.35783
C	5.17555	-0.378044	0.861828
H	5.77008	-0.620725	-0.0446433
H	5.68607	0.431116	1.42322
H	5.14571	-1.28303	1.50715
N	4.13631	2.41442	0.130331
C	4.17127	3.63614	-0.639307
H	4.41118	2.45484	1.08526
H	4.52174	4.48575	-0.0127541
H	3.15756	3.88349	-1.02983
H	4.86052	3.53353	-1.50853
