44
  This energy is -1.0843 and Call times are: 3170
C	-1.12458	-3.14318	0.984097
C	-0.370876	-1.89303	1.22946
O	0.0581425	-1.62057	2.34217
H	-1.21994	-3.70762	1.93709
H	-0.588419	-3.77443	0.244644
H	-2.14055	-2.90879	0.602063
N	-0.192635	-1.09124	0.176962
C	0.482985	0.179072	0.268576
C	-0.0782593	1.09182	-0.805411
O	-0.83765	0.655982	-1.66859
H	-0.583125	-1.3071	-0.713426
H	0.261228	0.633376	1.22621
C	2.00748	0.0072203	0.0907301
H	2.2361	-0.449122	-0.895941
H	2.54044	0.976603	0.173033
H	2.39521	-0.670571	0.882316
N	0.278781	2.39081	-0.771266
C	-0.210004	3.33503	-1.74888
H	0.890996	2.72557	-0.0626022
H	0.196394	4.35143	-1.5514
H	-1.32236	3.39054	-1.71942
H	0.0933155	3.02946	-2.77638
C	6.19927	3.4616	0.199034
C	6.80364	2.23664	-0.371379
O	7.51142	2.28498	-1.36793
H	6.48524	4.33669	-0.424107
H	6.56584	3.62268	1.23461
H	5.09237	3.37352	0.208452
N	6.53068	1.09156	0.258435
C	7.01124	-0.187083	-0.202738
C	6.02045	-1.25001	0.23324
O	5.10266	-0.97703	1.00451
H	5.91964	1.06301	1.04435
H	7.03312	-0.191156	-1.28539
C	8.4143	-0.487817	0.36843
H	8.3902	-0.494171	1.47903
H	8.8012	-1.46353	0.00951562
H	9.12091	0.306776	0.0433764
N	6.17962	-2.49355	-0.26102
C	5.28219	-3.56838	0.0932785
H	6.92588	-2.69411	-0.88708
H	5.5789	-4.51217	-0.415109
H	4.23752	-3.32259	-0.205947
H	5.29399	-3.74379	1.19338
