44
  This energy is -3.7968 and Call times are: 6004
C	-1.0812	2.59322	2.05399
C	-0.0200304	1.7117	1.51735
O	1.16242	1.94446	1.7272
H	-0.613494	3.43295	2.61256
H	-1.7385	2.0242	2.74457
H	-1.68973	3.00894	1.22335
N	-0.426999	0.663001	0.798337
C	0.489194	-0.259581	0.175445
C	-0.182933	-0.833745	-1.05749
O	-1.37297	-0.621739	-1.28241
H	-1.39123	0.509725	0.601804
H	1.36758	0.279205	-0.157398
C	0.884298	-1.38879	1.15218
H	-0.0153871	-1.94856	1.48575
H	1.60033	-2.09809	0.688815
H	1.36698	-0.945067	2.05022
N	0.571989	-1.57246	-1.8944
C	0.0200383	-2.15481	-3.0954
H	1.5341	-1.72954	-1.69757
H	0.798049	-2.72477	-3.64954
H	-0.379639	-1.36204	-3.76849
H	-0.814344	-2.85014	-2.84748
C	9.45174	-2.46301	-0.987928
C	9.11519	-1.0574	-0.668306
O	9.98863	-0.210184	-0.542862
H	10.556	-2.56878	-1.06101
H	8.99781	-2.75401	-1.9585
H	9.07829	-3.13719	-0.188504
N	7.81811	-0.775577	-0.525035
C	7.33866	0.537372	-0.171691
C	6.02775	0.377117	0.574894
O	5.47078	-0.716964	0.641814
H	7.12154	-1.48442	-0.589769
H	8.04166	1.0036	0.507308
C	7.14164	1.41003	-1.43062
H	6.41254	0.937318	-2.12271
H	6.78587	2.42806	-1.17069
H	8.11169	1.50714	-1.96533
N	5.50621	1.47091	1.16449
C	4.26532	1.41328	1.90142
H	5.97362	2.34657	1.10277
H	4.00407	2.41408	2.31055
H	4.3461	0.697422	2.7513
H	3.43259	1.07509	1.24314
