44
  This energy is 0 and Call times are: 16819
C	0.459269	-2.57962	2.2907
C	0.972509	-1.62671	1.28091
O	2.17379	-1.46247	1.11857
H	1.31581	-3.0468	2.82359
H	-0.135033	-3.37707	1.79712
H	-0.177055	-2.04836	3.02959
N	0.0565639	-0.965064	0.569817
C	0.401736	0.0259005	-0.418821
C	-0.734571	1.02769	-0.501142
O	-1.79743	0.82379	0.0823518
H	-0.917718	-1.07938	0.74179
H	1.28311	0.563933	-0.092738
C	0.646106	-0.630042	-1.79551
H	-0.261314	-1.17332	-2.13532
H	0.926232	0.121098	-2.56222
H	1.47613	-1.36492	-1.70974
N	-0.531609	2.14521	-1.22638
C	-1.55361	3.15742	-1.35724
H	0.336604	2.29435	-1.68794
H	-1.1957	3.99792	-1.99182
H	-1.83192	3.56597	-0.358788
H	-2.47118	2.7315	-1.82395
C	32.4297	-2.61952	-1.23577
C	31.7127	-1.33581	-1.40633
O	31.8503	-0.663583	-2.41904
H	33.0666	-2.80581	-2.12771
H	31.7033	-3.45283	-1.13246
H	33.0768	-2.57955	-0.334217
N	30.9194	-0.960872	-0.400053
C	30.1906	0.283067	-0.40203
C	30.0037	0.724005	1.03748
O	30.297	-0.0237755	1.96835
H	30.8494	-1.49865	0.43526
H	30.7819	1.04274	-0.89788
C	28.8228	0.119965	-1.10037
H	28.2116	-0.651809	-0.585695
H	28.2578	1.07439	-1.12063
H	28.9836	-0.210766	-2.1497
N	29.5153	1.96117	1.25407
C	29.3088	2.46908	2.59032
H	29.2876	2.55315	0.488022
H	28.9017	3.50376	2.55921
H	30.2682	2.48681	3.1564
H	28.5904	1.82609	3.14856
