44
  This energy is 1.72083e-320 and Call times are: 13109
C	1.47441	-1.65982	2.68026
C	1.44704	-0.571965	1.67679
O	2.21513	0.377208	1.75109
H	2.2508	-1.43579	3.44374
H	1.71977	-2.62578	2.19091
H	0.488035	-1.74084	3.18384
N	0.543614	-0.687607	0.700657
C	0.368209	0.311913	-0.323429
C	-1.0756	0.26585	-0.786955
O	-1.8267	-0.63539	-0.419084
H	-0.102166	-1.44541	0.676669
H	0.539305	1.29297	0.10188
C	1.32577	0.0610798	-1.50893
H	1.1435	-0.941041	-1.95229
H	1.21007	0.832109	-2.29801
H	2.37604	0.091366	-1.14511
N	-1.50146	1.24875	-1.60462
C	-2.86035	1.29063	-2.09232
H	-0.880024	1.97163	-1.88805
H	-3.0151	2.17428	-2.74992
H	-3.5802	1.35446	-1.24436
H	-3.09649	0.37236	-2.67726
C	4.61176	-1.59569	-2.36927
C	5.67534	-1.60706	-1.3398
O	6.12581	-2.65867	-0.906635
H	4.33105	-2.64198	-2.61892
H	4.97521	-1.09179	-3.28945
H	3.71474	-1.06445	-1.98688
N	6.10508	-0.415759	-0.917299
C	7.10448	-0.265824	0.110938
C	6.85611	1.05021	0.823627
O	6.03468	1.85589	0.390217
H	5.69994	0.431176	-1.24959
H	6.98619	-1.05589	0.841985
C	8.52576	-0.294889	-0.492699
H	8.65104	0.521971	-1.23505
H	9.30468	-0.194236	0.290671
H	8.68253	-1.2634	-1.01591
N	7.55965	1.29572	1.94647
C	7.38636	2.5189	2.69478
H	8.21683	0.629839	2.28379
H	8.05306	2.53309	3.58503
H	6.33321	2.61988	3.04399
H	7.62672	3.404	2.06234
