44
  This energy is -1.487 and Call times are: 9451
C	1.45436	1.5042	-2.78117
C	0.853461	0.338215	-2.09521
O	0.545942	-0.671075	-2.71422
H	1.53645	1.2884	-3.86863
H	2.46882	1.70498	-2.37706
H	0.816157	2.40191	-2.64012
N	0.66818	0.455093	-0.778245
C	0.0549884	-0.578012	0.0187812
C	-0.628547	0.080645	1.20221
O	-0.461208	1.27499	1.44148
H	0.885785	1.29838	-0.295149
H	-0.713189	-1.07046	-0.564344
C	1.10735	-1.6002	0.501388
H	1.88995	-1.09722	1.1085
H	0.645479	-2.40844	1.10467
H	1.60026	-2.0638	-0.380917
N	-1.42692	-0.687007	1.9699
C	-2.12303	-0.145905	3.11393
H	-1.5531	-1.65045	1.75795
H	-2.72825	-0.933441	3.61466
H	-2.80662	0.677599	2.80438
H	-1.40037	0.265583	3.85526
C	5.23615	-2.25094	2.33424
C	5.17088	-0.975576	1.58569
O	4.16609	-0.278274	1.60959
H	4.26688	-2.42383	2.85047
H	6.04509	-2.20806	3.09353
H	5.42767	-3.09418	1.63758
N	6.25995	-0.638976	0.890686
C	6.33161	0.55035	0.0789456
C	7.30649	0.291519	-1.05428
O	7.99991	-0.723689	-1.06898
H	7.05521	-1.23696	0.848028
H	5.36236	0.738138	-0.365931
C	6.78673	1.76442	0.918076
H	7.78573	1.57646	1.3661
H	6.8325	2.68933	0.307363
H	6.06321	1.93033	1.74592
N	7.37575	1.20689	-2.04084
C	8.27042	1.04277	-3.1628
H	6.80372	2.01997	-2.01345
H	8.18072	1.89993	-3.86599
H	8.0349	0.106781	-3.71934
H	9.32766	0.981968	-2.81685
