44
  This energy is 1.86362e-320 and Call times are: 11818
C	-1.8617	0.896635	-2.8005
C	-1.53365	1.01302	-1.36176
O	-1.99677	1.9154	-0.677908
H	-2.53377	1.73257	-3.09276
H	-2.37838	-0.065941	-2.99856
H	-0.934989	0.95073	-3.4099
N	-0.710916	0.0869558	-0.863873
C	-0.266559	0.0933562	0.507646
C	1.09886	-0.565311	0.565528
O	1.5638	-1.13847	-0.417851
H	-0.309635	-0.617458	-1.44236
H	-0.145155	1.11711	0.839045
C	-1.26748	-0.654623	1.41535
H	-1.38439	-1.70789	1.08219
H	-0.94348	-0.644742	2.47622
H	-2.26139	-0.160283	1.35116
N	1.78043	-0.490637	1.72566
C	3.08946	-1.08308	1.87278
H	1.38943	-0.0190452	2.50911
H	3.48443	-0.914326	2.89881
H	3.80573	-0.639	1.14407
H	3.04678	-2.18114	1.68949
C	10.5317	-1.23875	-1.04
C	9.09815	-1.41548	-0.716047
O	8.50825	-2.44936	-0.998058
H	10.9061	-2.14846	-1.55778
H	11.1184	-1.08762	-0.109625
H	10.6677	-0.362905	-1.70893
N	8.49645	-0.390598	-0.107805
C	7.09528	-0.397464	0.231665
C	6.59934	1.03625	0.222424
O	7.38703	1.97445	0.117365
H	8.97958	0.46015	0.0783802
H	6.54543	-0.933904	-0.531569
C	6.86641	-1.04067	1.617
H	7.42185	-0.484386	2.4019
H	5.78994	-1.06445	1.88379
H	7.24391	-2.08644	1.60296
N	5.27102	1.23906	0.324516
C	4.70675	2.56863	0.319099
H	4.64916	0.467072	0.40457
H	3.59915	2.52616	0.412181
H	4.95879	3.09843	-0.628037
H	5.10736	3.1691	1.16768
