44
  This energy is 0.0001 and Call times are: 13925
C	-0.584457	1.36542	-3.14749
C	0.237035	0.578419	-2.20044
O	1.18573	-0.089132	-2.58872
H	-0.200382	1.21487	-4.17982
H	-0.527982	2.44561	-2.89701
H	-1.6426	1.03126	-3.10546
N	-0.117557	0.639233	-0.914768
C	0.558991	-0.105343	0.117922
C	-0.436712	-0.387305	1.22726
O	-1.54749	0.139846	1.22552
H	-0.917104	1.15441	-0.619497
H	0.877055	-1.06069	-0.280547
C	1.76914	0.683591	0.664139
H	1.44202	1.65925	1.0826
H	2.30669	0.114868	1.45035
H	2.48059	0.885599	-0.166159
N	-0.0618076	-1.23835	2.20255
C	-0.944744	-1.57096	3.29616
H	0.83958	-1.65816	2.18452
H	-0.454951	-2.28574	3.9936
H	-1.88186	-2.03856	2.91611
H	-1.22276	-0.656712	3.86887
C	9.44967	3.03197	1.16544
C	9.50297	1.55687	1.0541
O	10.4858	0.92927	1.42378
H	10.4057	3.40266	1.59492
H	8.61484	3.33556	1.83149
H	9.30612	3.48648	0.162497
N	8.4285	0.962035	0.530577
C	8.34962	-0.461888	0.318977
C	7.42118	-0.715068	-0.853825
O	6.75836	0.19872	-1.34103
H	7.65278	1.48978	0.196495
H	9.32738	-0.83674	0.0431183
C	7.83162	-1.17984	1.58447
H	6.82405	-0.803114	1.86181
H	7.77954	-2.27829	1.4388
H	8.52189	-0.974186	2.43157
N	7.35849	-1.96948	-1.34223
C	6.50706	-2.30375	-2.46004
H	7.90547	-2.69467	-0.937289
H	6.59538	-3.3834	-2.71261
H	6.78813	-1.7093	-3.35943
H	5.44102	-2.08539	-2.22122
