44
  This energy is -0.1565 and Call times are: 15780
C	-2.39987	-2.00535	1.52705
C	-2.00526	-0.816851	0.737808
O	-2.84094	-0.131615	0.164661
H	-3.50284	-2.13307	1.47209
H	-2.1058	-1.87403	2.5896
H	-1.91194	-2.91532	1.11843
N	-0.699317	-0.54394	0.688712
C	-0.159103	0.553792	-0.0739893
C	1.25095	0.187185	-0.496972
O	1.80197	-0.816502	-0.0489786
H	-0.0276404	-1.13463	1.12666
H	-0.743234	0.683312	-0.976567
C	-0.153691	1.85438	0.758892
H	0.454112	1.72534	1.67974
H	0.247201	2.71012	0.177933
H	-1.19451	2.09903	1.06415
N	1.86776	0.99404	-1.38272
C	3.20803	0.721943	-1.84728
H	1.40409	1.79936	-1.73705
H	3.53875	1.49912	-2.57105
H	3.25486	-0.269987	-2.35241
H	3.92465	0.709191	-0.994375
C	5.92143	1.86201	2.3786
C	5.98635	1.12196	1.09826
O	4.97059	0.841897	0.476803
H	4.8583	2.06662	2.63105
H	6.46211	2.82773	2.29026
H	6.37438	1.25816	3.19301
N	7.20442	0.781654	0.670606
C	7.42492	0.0225267	-0.535073
C	8.70945	-0.767274	-0.368456
O	9.45001	-0.569733	0.592927
H	8.01889	0.980881	1.20801
H	6.62077	-0.691971	-0.659423
C	7.51715	0.953382	-1.76399
H	8.34868	1.67976	-1.64159
H	7.67303	0.379681	-2.70052
H	6.56971	1.52707	-1.86177
N	9.00027	-1.69268	-1.3039
C	10.198	-2.4961	-1.22567
H	8.38665	-1.84096	-2.07238
H	10.2576	-3.19813	-2.08639
H	10.2098	-3.09307	-0.285045
H	11.1058	-1.8504	-1.23614
