44
  This energy is -2.6363 and Call times are: 6690
C	-0.538367	-3.30958	-0.93247
C	-0.682627	-2.18321	0.0170626
O	-1.43713	-2.25729	0.977085
H	-1.21026	-4.13937	-0.622794
H	0.509352	-3.67704	-0.934005
H	-0.81738	-2.98457	-1.95697
N	0.0493224	-1.09585	-0.236469
C	-0.0159396	0.0955319	0.572795
C	0.320556	1.28434	-0.307585
O	0.745094	1.12185	-1.44999
H	0.628047	-1.0352	-1.04472
H	-1.03047	0.232469	0.925787
C	0.964452	0.00841149	1.76296
H	2.00667	-0.121501	1.4011
H	0.913597	0.914029	2.40154
H	0.704356	-0.872984	2.38893
N	0.129215	2.51593	0.204854
C	0.416535	3.70633	-0.561034
H	-0.218958	2.6272	1.12977
H	0.193957	4.6197	0.0334647
H	-0.198591	3.73398	-1.48954
H	1.49016	3.73352	-0.857246
C	3.38558	-2.99175	0.93204
C	4.29937	-1.8569	1.19326
O	4.77379	-1.66917	2.30506
H	3.22868	-3.56125	1.8738
H	3.8255	-3.66997	0.170967
H	2.4045	-2.61771	0.570585
N	4.56831	-1.06061	0.155965
C	5.40548	0.108058	0.265111
C	4.95562	1.11142	-0.780099
O	4.13533	0.799016	-1.64105
H	4.14219	-1.20251	-0.732934
H	5.25671	0.564673	1.23567
C	6.89209	-0.257181	0.0605895
H	7.04706	-0.716035	-0.939153
H	7.54833	0.632071	0.156004
H	7.1973	-0.998318	0.831242
N	5.48004	2.35147	-0.722965
C	5.1073	3.37428	-1.67223
H	6.13934	2.58656	-0.0164729
H	5.64562	4.32395	-1.45875
H	4.01222	3.57389	-1.62481
H	5.35555	3.05608	-2.71062
