44
  This energy is -2.1358 and Call times are: 14771
C	-0.82034	3.37585	0.208283
C	-0.443258	2.17169	-0.565643
O	-0.500769	2.16088	-1.78752
H	-1.15006	4.17403	-0.491769
H	0.0503333	3.74512	0.789927
H	-1.65451	3.13919	0.902001
N	-0.044368	1.11225	0.142057
C	0.313079	-0.144405	-0.46755
C	0.0229737	-1.25225	0.527476
O	-0.282581	-0.991045	1.68942
H	-0.041929	1.1229	1.13792
H	-0.31677	-0.314089	-1.33192
C	1.80339	-0.156948	-0.872579
H	2.45036	0.00657825	0.0155229
H	2.08761	-1.11419	-1.35572
H	1.99439	0.666687	-1.59473
N	0.104412	-2.52384	0.0887908
C	-0.159777	-3.64325	0.962474
H	0.349123	-2.71513	-0.855983
H	-0.0413707	-4.60493	0.416251
H	-1.19847	-3.59286	1.36228
H	0.543242	-3.64179	1.82671
C	5.95713	-1.59874	-2.88636
C	5.16196	-1.56573	-1.63825
O	4.33045	-2.42919	-1.39443
H	5.64931	-2.47672	-3.49484
H	7.03818	-1.6871	-2.64915
H	5.78261	-0.674006	-3.47584
N	5.40301	-0.548609	-0.807742
C	4.67891	-0.358018	0.424294
C	4.65554	1.12687	0.734331
O	5.33212	1.91765	0.0796446
H	6.05383	0.168852	-1.03913
H	3.65255	-0.67531	0.288176
C	5.33947	-1.14202	1.57939
H	6.38917	-0.809468	1.72635
H	4.78318	-1.01447	2.53059
H	5.35287	-2.22492	1.32742
N	3.8636	1.5428	1.74222
C	3.77275	2.93767	2.10587
H	3.32042	0.888413	2.2578
H	3.07039	3.07725	2.95701
H	3.40672	3.54465	1.24629
H	4.77069	3.33134	2.40635
