44
  This energy is -1.1732 and Call times are: 14149
C	-1.89891	-1.74685	2.33567
C	-1.50845	-0.496376	1.64647
O	-2.16137	0.529612	1.77859
H	-2.8276	-1.56937	2.9204
H	-1.0938	-2.06917	3.02896
H	-2.08998	-2.54969	1.59267
N	-0.416528	-0.556896	0.880687
C	0.0628926	0.566115	0.114161
C	0.79353	0.0307298	-1.10284
O	1.03734	-1.16927	-1.21363
H	0.0809946	-1.40979	0.750636
H	-0.782034	1.14102	-0.243907
C	1.00089	1.45279	0.962223
H	1.8733	0.866114	1.32104
H	1.36576	2.32855	0.387389
H	0.447716	1.82691	1.85126
N	1.15443	0.914206	-2.05428
C	1.84862	0.496049	-3.24987
H	0.944731	1.88061	-1.94866
H	2.05721	1.36764	-3.90868
H	1.23687	-0.237917	-3.82287
H	2.81794	0.011068	-2.99227
C	8.25282	3.18284	0.533795
C	8.34825	1.70726	0.602383
O	9.40557	1.15305	0.869491
H	9.25205	3.62538	0.737672
H	7.53312	3.55547	1.29268
H	7.91971	3.49817	-0.477478
N	7.22571	1.02787	0.355938
C	7.17164	-0.412776	0.343463
C	6.06662	-0.836411	-0.605763
O	5.29191	-0.00789529	-1.0802
H	6.38252	1.49182	0.0997234
H	8.1022	-0.801776	-0.0506876
C	6.91	-0.967329	1.76095
H	5.95027	-0.576856	2.16156
H	6.87994	-2.07619	1.76693
H	7.72654	-0.638384	2.44021
N	5.97367	-2.14528	-0.912755
C	4.95732	-2.64053	-1.8116
H	6.61227	-2.79998	-0.522075
H	5.04624	-3.74216	-1.9371
H	5.05403	-2.16464	-2.81433
H	3.94009	-2.41322	-1.41826
