44
  This energy is -3.2422 and Call times are: 12237
C	0.100367	-3.20895	1.3436
C	-0.0787348	-2.27668	0.207846
O	-0.127147	-2.68465	-0.94438
H	0.190815	-4.24696	0.955999
H	-0.774646	-3.15471	2.02489
H	1.02307	-2.9538	1.90629
N	-0.180405	-0.981149	0.513849
C	-0.31491	0.0490878	-0.485692
C	0.289391	1.32614	0.0670445
O	0.632825	1.40186	1.24519
H	-0.0980879	-0.660505	1.45315
H	0.258671	-0.226266	-1.36194
C	-1.79817	0.268055	-0.856146
H	-2.38503	0.560831	0.0404621
H	-1.91388	1.04935	-1.63506
H	-2.22188	-0.681204	-1.25077
N	0.441625	2.36339	-0.779691
C	1.01256	3.61677	-0.344665
H	0.161539	2.28166	-1.73045
H	1.05367	4.34323	-1.18597
H	2.04776	3.46497	0.0381909
H	0.403443	4.06283	0.474572
C	4.63214	0.9876	-3.29458
C	4.67909	1.23552	-1.83598
O	5.27628	2.19924	-1.37661
H	5.21384	1.77589	-3.82002
H	3.58202	1.0161	-3.654
H	5.07606	-0.00291662	-3.52885
N	4.04052	0.35373	-1.06328
C	4.03337	0.43782	0.375963
C	3.88424	-0.966181	0.931044
O	3.63044	-1.9131	0.189004
H	3.59347	-0.448212	-1.44915
H	4.9879	0.819516	0.716242
C	2.88183	1.34059	0.870129
H	1.90158	0.943613	0.53018
H	2.87408	1.42451	1.97621
H	3.00691	2.36051	0.445329
N	4.0481	-1.1346	2.25799
C	3.93034	-2.43517	2.87511
H	4.25713	-0.35689	2.84156
H	4.09918	-2.36655	3.97239
H	4.67913	-3.14146	2.4488
H	2.91583	-2.86183	2.70227
