44
  This energy is 0.3118 and Call times are: 3706
C	-1.29937	-2.86497	-1.48871
C	-0.166422	-2.06241	-0.975427
O	0.946348	-2.5522	-0.840301
H	-0.954935	-3.90379	-1.68388
H	-1.67941	-2.42838	-2.43618
H	-2.11888	-2.89282	-0.739897
N	-0.430568	-0.789624	-0.671077
C	0.558739	0.103229	-0.120946
C	-0.156832	1.13587	0.729444
O	-1.38376	1.21545	0.723926
H	-1.35081	-0.416629	-0.747825
H	1.21755	-0.453388	0.533868
C	1.36582	0.79146	-1.24353
H	0.691665	1.37123	-1.90942
H	2.14018	1.47111	-0.832461
H	1.87445	0.0166425	-1.85778
N	0.599024	1.95052	1.49171
C	0.00579692	2.95993	2.3375
H	1.59011	1.86819	1.4859
H	0.791577	3.52609	2.88453
H	-0.675799	2.49437	3.08581
H	-0.588384	3.68127	1.73108
C	4.78492	2.78818	-0.527514
C	6.03684	2.15577	-0.0543274
O	7.0119	2.83007	0.247308
H	4.92088	3.89097	-0.562288
H	3.95053	2.55061	0.165381
H	4.53395	2.42474	-1.54634
N	6.03717	0.822762	0.0197275
C	7.19496	0.0632686	0.42128
C	7.12476	-1.29594	-0.248946
O	6.11467	-1.64772	-0.855294
H	5.24952	0.285598	-0.268231
H	8.08862	0.555862	0.0588532
C	7.24728	-0.0923034	1.95696
H	6.33552	-0.607032	2.32816
H	8.14176	-0.663509	2.27968
H	7.29018	0.914644	2.42659
N	8.2079	-2.09292	-0.161464
C	8.23496	-3.40133	-0.772603
H	9.01738	-1.7891	0.329972
H	9.21189	-3.90071	-0.589649
H	8.08166	-3.32392	-1.87342
H	7.42777	-4.04644	-0.356159
