44
  This energy is 0 and Call times are: 16847
C	0.385251	3.37665	0.749992
C	0.46372	1.94381	1.11322
O	1.02718	1.58008	2.13627
H	0.912286	3.98029	1.52054
H	-0.675281	3.70181	0.702162
H	0.869245	3.54894	-0.234467
N	-0.108201	1.08472	0.266315
C	-0.0764199	-0.343256	0.462395
C	-0.140989	-1.00919	-0.899192
O	-0.370868	-0.350975	-1.91192
H	-0.527368	1.39266	-0.582998
H	0.868329	-0.621039	0.912859
C	-1.2549	-0.804959	1.34741
H	-2.22457	-0.529548	0.88058
H	-1.23365	-1.90097	1.51721
H	-1.19192	-0.29914	2.3356
N	0.070356	-2.33892	-0.955546
C	0.0339591	-3.05768	-2.20784
H	0.25896	-2.8537	-0.125789
H	0.231984	-4.14017	-2.04587
H	0.802888	-2.662	-2.91031
H	-0.963492	-2.95221	-2.69272
C	32.0574	2.07078	-2.76201
C	31.9841	1.80455	-1.30774
O	31.7699	2.70612	-0.509172
H	31.9098	3.15744	-2.94435
H	31.2638	1.50595	-3.2949
H	33.0516	1.77201	-3.15615
N	32.1661	0.538122	-0.92636
C	32.1661	0.131454	0.456816
C	33.0524	-1.09259	0.58993
O	33.4905	-1.66428	-0.406534
H	32.3802	-0.177759	-1.58478
H	32.6065	0.915742	1.05974
C	30.733	-0.182603	0.93953
H	30.2846	-0.99442	0.328058
H	30.7181	-0.483598	2.0071
H	30.1003	0.724606	0.8256
N	33.3453	-1.52018	1.83387
C	34.1856	-2.67329	2.05851
H	32.9848	-1.04202	2.62787
H	34.3083	-2.86433	3.1474
H	35.1952	-2.51615	1.6143
H	33.7402	-3.5812	1.59104
