44
  This energy is -0.021 and Call times are: 16259
C	2.63201	-2.00606	-1.07748
C	1.98386	-0.685945	-0.909105
O	2.59895	0.351742	-1.11225
H	3.69221	-1.85904	-1.37786
H	2.11257	-2.58959	-1.86641
H	2.6043	-2.57067	-0.121688
N	0.705293	-0.697255	-0.525011
C	-0.046599	0.507856	-0.27818
C	-1.11102	0.197497	0.757315
O	-1.32538	-0.959831	1.11278
H	0.23007	-1.54908	-0.323948
H	0.609067	1.25706	0.147762
C	-0.693313	1.0309	-1.5795
H	-1.37417	0.266659	-2.01124
H	-1.26367	1.96623	-1.40521
H	0.103341	1.24381	-2.32539
N	-1.80109	1.23307	1.27443
C	-2.82918	1.03481	2.26937
H	-1.61049	2.16282	0.977255
H	-3.27928	2.00688	2.56888
H	-2.40716	0.548969	3.17884
H	-3.63902	0.380589	1.87277
C	10.358	1.89032	0.288247
C	9.43973	0.831056	0.763563
O	9.77288	0.0546449	1.64822
H	11.3198	1.81776	0.840918
H	9.91384	2.89158	0.469774
H	10.5569	1.76564	-0.797096
N	8.24322	0.774438	0.17403
C	7.25914	-0.227773	0.499164
C	6.40364	-0.467117	-0.730634
O	6.50106	0.260519	-1.71692
H	8.00184	1.38734	-0.572926
H	7.76072	-1.15943	0.729484
C	6.38345	0.224228	1.68833
H	5.86044	1.1745	1.44859
H	5.63075	-0.544951	1.95726
H	7.03112	0.401171	2.57464
N	5.5455	-1.50579	-0.702869
C	4.69502	-1.81393	-1.82888
H	5.48387	-2.08574	0.102694
H	4.06242	-2.70283	-1.61227
H	5.30608	-2.03103	-2.73484
H	4.02502	-0.954944	-2.06208
