44
  This energy is -2.1999 and Call times are: 11468
C	2.44161	2.21624	-1.11333
C	1.12209	1.92763	-0.507764
O	0.46132	2.81107	0.0207552
H	2.68023	3.29353	-0.977746
H	2.42281	1.98625	-2.19938
H	3.22987	1.6088	-0.620647
N	0.704381	0.661178	-0.570904
C	-0.538045	0.218744	0.011496
C	-0.387379	-1.24145	0.394485
O	0.601268	-1.88478	0.0474695
H	1.27176	-0.0545048	-0.968083
H	-0.723082	0.773786	0.922716
C	-1.70787	0.400468	-0.980334
H	-1.52344	-0.177206	-1.91109
H	-2.67238	0.0762428	-0.538605
H	-1.79445	1.475	-1.25281
N	-1.36817	-1.79897	1.13154
C	-1.30856	-3.18081	1.54766
H	-2.15838	-1.26118	1.40617
H	-2.20721	-3.45075	2.14498
H	-0.404456	-3.36426	2.17232
H	-1.25964	-3.85598	0.662842
C	9.06386	1.45105	-2.10223
C	8.18752	1.48073	-0.90963
O	8.30229	2.35462	-0.0613664
H	9.78367	2.29664	-2.05021
H	8.45645	1.55246	-3.02609
H	9.63166	0.497362	-2.13623
N	7.27846	0.507395	-0.816807
C	6.38386	0.378953	0.30647
C	6.03267	-1.08828	0.466074
O	6.35996	-1.91063	-0.387347
H	7.22439	-0.220238	-1.49466
H	6.89676	0.687866	1.20876
C	5.10697	1.22134	0.093944
H	4.57481	0.897765	-0.825922
H	4.41623	1.14176	0.958275
H	5.38848	2.29004	-0.028389
N	5.36055	-1.45323	1.57561
C	4.98813	-2.8279	1.81592
H	5.10806	-0.77403	2.2568
H	4.44279	-2.92474	2.78052
H	5.89185	-3.47817	1.85743
H	4.32881	-3.20476	1.0008
