44
  This energy is 0.0861 and Call times are: 5948
C	-0.376776	-3.34119	0.898434
C	0.450466	-2.1955	0.457729
O	1.67194	-2.26174	0.452241
H	0.288047	-4.1767	1.20797
H	-1.02539	-3.68736	0.0664405
H	-1.0095	-3.04654	1.76211
N	-0.209182	-1.09999	0.0742097
C	0.458624	0.108902	-0.339527
C	-0.448175	1.2828	-0.0213438
O	-1.6066	1.10156	0.348674
H	-1.2025	-1.04707	0.123086
H	1.36382	0.233763	0.241563
C	0.784849	0.0701577	-1.8486
H	-0.144512	-0.0473362	-2.4457
H	1.31163	0.989621	-2.17665
H	1.44276	-0.801039	-2.05961
N	0.0647122	2.52221	-0.151027
C	-0.721786	3.69946	0.134819
H	1.00549	2.64859	-0.447729
H	-0.123148	4.62215	-0.030991
H	-1.06889	3.69241	1.19347
H	-1.62011	3.7412	-0.522757
C	10.0457	-0.797187	3.36923
C	9.82415	-1.07906	1.93306
O	9.39544	-2.1621	1.55934
H	9.78275	-1.69805	3.96517
H	9.40602	0.0493427	3.69622
H	11.1121	-0.545619	3.54974
N	10.1191	-0.0932582	1.08241
C	9.99672	-0.232826	-0.347315
C	11.0103	0.68758	-1.00084
O	11.6414	1.50466	-0.333201
H	10.5058	0.768307	1.39857
H	10.2518	-1.24644	-0.630413
C	8.56704	0.11668	-0.815422
H	8.30874	1.15995	-0.534508
H	8.45625	-0.000300849	-1.91295
H	7.84155	-0.563911	-0.318637
N	11.1963	0.569356	-2.33028
C	12.1438	1.39886	-3.03765
H	10.6792	-0.100465	-2.8528
H	12.1515	1.15038	-4.12183
H	13.1725	1.2497	-2.63668
H	11.8828	2.4762	-2.92648
