44
  This energy is -2.3909 and Call times are: 15611
C	0.743594	2.09899	2.6747
C	1.13773	1.11432	1.64212
O	2.31524	0.880721	1.40691
H	1.65714	2.54418	3.12538
H	0.15488	1.60096	3.47353
H	0.136333	2.90924	2.21884
N	0.143043	0.507075	0.990784
C	0.369395	-0.442882	-0.0698317
C	-0.816719	-0.38898	-1.01417
O	-1.82461	0.252347	-0.723381
H	-0.810011	0.737782	1.16494
H	1.24475	-0.146383	-0.634167
C	0.547015	-1.86908	0.495549
H	-0.355009	-2.17779	1.06571
H	0.735782	-2.60765	-0.310304
H	1.41539	-1.88311	1.18987
N	-0.719507	-1.05953	-2.17905
C	-1.79567	-1.06111	-3.14241
H	0.105709	-1.56941	-2.39839
H	-1.52435	-1.66813	-4.03411
H	-2.02197	-0.0238305	-3.48021
H	-2.72242	-1.48863	-2.69574
C	5.50405	0.273381	3.15392
C	6.62635	-0.0965505	2.26244
O	7.72807	-0.376353	2.71446
H	5.85359	0.260495	4.20915
H	4.67135	-0.452493	3.04228
H	5.14041	1.29342	2.90825
N	6.36653	-0.103663	0.952921
C	7.3683	-0.401086	-0.0403337
C	7.00061	0.331327	-1.31703
O	5.91456	0.896872	-1.42817
H	5.47606	0.166157	0.597811
H	8.32438	-0.0141821	0.289576
C	7.45819	-1.92169	-0.295128
H	6.4804	-2.31726	-0.643708
H	8.23577	-2.16472	-1.04801
H	7.72045	-2.43798	0.654082
N	7.90767	0.344772	-2.31356
C	7.64793	1.02118	-3.56303
H	8.7826	-0.115046	-2.20337
H	8.51413	0.91857	-4.25325
H	7.46337	2.1064	-3.39122
H	6.74882	0.5929	-4.06234
