44
  This energy is -2.8917 and Call times are: 8377
C	-1.09154	-0.773822	-3.21285
C	-1.03868	0.120542	-2.03452
O	-1.46628	1.26535	-2.08909
H	-1.53971	-0.225873	-4.07004
H	-1.71587	-1.6644	-2.98965
H	-0.0675297	-1.10089	-3.49127
N	-0.501037	-0.391118	-0.924785
C	-0.341462	0.37088	0.288662
C	0.852555	-0.184199	1.04216
O	1.39728	-1.22529	0.680047
H	-0.120059	-1.31114	-0.907758
H	-0.114536	1.39946	0.037338
C	-1.6146	0.294407	1.15958
H	-1.84189	-0.7597	1.42648
H	-1.50936	0.888513	2.09043
H	-2.47685	0.698365	0.58539
N	1.29449	0.507933	2.11066
C	2.42779	0.0595244	2.88572
H	0.843195	1.35037	2.3858
H	2.6356	0.763122	3.72178
H	3.33889	-0.00559398	2.2478
H	2.23495	-0.949727	3.31626
C	3.74029	2.81814	-0.723779
C	4.51523	1.62722	-1.13892
O	4.4895	1.22649	-2.29441
H	3.17612	3.21192	-1.59699
H	4.42456	3.60931	-0.351545
H	3.02002	2.54614	0.0764134
N	5.23207	1.0244	-0.187536
C	6.00281	-0.169812	-0.429145
C	6.08117	-0.952674	0.867989
O	5.68216	-0.464274	1.92343
H	5.21059	1.33818	0.757418
H	5.48411	-0.7901	-1.14944
C	7.4188	0.180661	-0.936464
H	7.9552	0.808253	-0.193198
H	8.01752	-0.730863	-1.13939
H	7.33693	0.76001	-1.88197
N	6.5935	-2.19803	0.816727
C	6.70262	-3.01977	1.99952
H	6.90735	-2.57747	-0.0473312
H	7.14795	-4.00847	1.75178
H	5.69936	-3.19096	2.45278
H	7.34668	-2.52628	2.76293
