44
  This energy is -0.0125 and Call times are: 16539
C	1.91119	-1.28596	-2.6089
C	1.26343	-1.41015	-1.28371
O	1.17486	-2.49292	-0.721419
H	2.24499	-2.28997	-2.95009
H	2.79483	-0.617071	-2.54177
H	1.19248	-0.875442	-3.34919
N	0.786393	-0.283946	-0.748465
C	0.0924796	-0.252609	0.514889
C	-0.880502	0.911138	0.491354
O	-0.859058	1.73155	-0.424164
H	0.829581	0.583026	-1.23669
H	-0.490653	-1.15844	0.624724
C	1.087	-0.103291	1.68701
H	1.67813	0.831176	1.58038
H	0.565925	-0.0918261	2.66624
H	1.79411	-0.961363	1.67992
N	-1.76795	1.00471	1.50116
C	-2.73579	2.07521	1.56014
H	-1.77254	0.328921	2.23079
H	-3.37544	1.97766	2.46488
H	-3.39456	2.05908	0.661786
H	-2.22551	3.06488	1.59631
C	10.488	-0.902362	3.00204
C	10.5834	-0.947973	1.52557
O	9.92677	-1.74774	0.873194
H	9.77853	-1.68498	3.34856
H	10.1162	0.0907808	3.33099
H	11.4833	-1.09316	3.45593
N	11.4203	-0.0763938	0.95778
C	11.6522	-0.0294086	-0.464387
C	13.0582	0.49058	-0.697403
O	13.7248	0.942037	0.23188
H	11.9786	0.540715	1.50488
H	11.6089	-1.03382	-0.866758
C	10.6164	0.878783	-1.16258
H	10.6676	1.91191	-0.757524
H	10.7759	0.912221	-2.25983
H	9.59456	0.483924	-0.972032
N	13.5471	0.430746	-1.95175
C	14.8771	0.897099	-2.26768
H	12.9942	0.0583095	-2.68974
H	15.094	0.763224	-3.3504
H	15.6403	0.332001	-1.68494
H	14.984	1.97791	-2.01951
