44
  This energy is 4.05529e-320 and Call times are: 10657
C	-2.03393	-2.42473	-1.44794
C	-1.3231	-1.12691	-1.48733
O	-1.20711	-0.500163	-2.53142
H	-2.38332	-2.68333	-2.47113
H	-2.91362	-2.35895	-0.77372
H	-1.35186	-3.22387	-1.08843
N	-0.821369	-0.689726	-0.329955
C	-0.0674872	0.534102	-0.218299
C	0.902721	0.388068	0.938821
O	0.836889	-0.576875	1.69794
H	-0.88838	-1.23077	0.503503
H	0.520655	0.67459	-1.11662
C	-1.00452	1.74043	0.00969691
H	-1.60051	1.60165	0.936828
H	-0.436944	2.69066	0.0834898
H	-1.71078	1.82324	-0.845107
N	1.83769	1.34582	1.09554
C	2.80677	1.28836	2.16501
H	1.87767	2.11688	0.468689
H	3.48925	2.16576	2.12484
H	3.42156	0.36236	2.08864
H	2.29838	1.28444	3.1563
C	5.75366	2.78731	1.21082
C	6.51219	2.08073	0.154164
O	6.58637	2.53136	-0.980669
H	5.29993	3.70804	0.783939
H	6.4315	3.07301	2.04248
H	4.94394	2.13552	1.60147
N	7.1002	0.936243	0.510222
C	7.8367	0.114947	-0.418005
C	7.74679	-1.32525	0.0503142
O	7.2647	-1.60194	1.14701
H	6.99665	0.561507	1.42712
H	7.36664	0.167314	-1.39213
C	9.31147	0.565502	-0.503393
H	9.79711	0.501936	0.493682
H	9.88588	-0.0504177	-1.22535
H	9.3528	1.62435	-0.840233
N	8.20476	-2.28257	-0.780234
C	8.15532	-3.68096	-0.422119
H	8.58762	-2.03939	-1.66531
H	8.57838	-4.31047	-1.23573
H	7.10433	-4.00294	-0.240356
H	8.73982	-3.86957	0.507359
