44
  This energy is -1.9783 and Call times are: 5808
C	1.00193	-1.86464	-2.7626
C	0.206654	-1.69135	-1.52621
O	-0.684468	-2.47589	-1.2316
H	0.635169	-2.75819	-3.31299
H	2.07322	-2.01221	-2.51102
H	0.895091	-0.972113	-3.41457
N	0.515834	-0.639575	-0.764263
C	-0.197387	-0.315516	0.446051
C	-0.117176	1.18497	0.654974
O	0.615746	1.88014	-0.0459441
H	1.2164	0.0131642	-1.03813
H	-1.24307	-0.568639	0.323143
C	0.402215	-1.06362	1.65686
H	1.4722	-0.796214	1.78976
H	-0.147071	-0.833135	2.59264
H	0.340176	-2.15941	1.47866
N	-0.881402	1.72283	1.6259
C	-0.875036	3.14211	1.89382
H	-1.47115	1.14462	2.17992
H	-1.56882	3.38801	2.72774
H	-1.19435	3.71346	0.99223
H	0.147094	3.48438	2.17532
C	8.43829	0.463762	2.38874
C	7.11769	-0.0545788	1.96627
O	6.48588	-0.828179	2.67251
H	8.70673	0.0253298	3.37442
H	8.40256	1.5693	2.48489
H	9.21504	0.182363	1.64674
N	6.66593	0.366374	0.782589
C	5.41809	-0.0837993	0.217988
C	5.53379	-0.0236158	-1.29349
O	6.50152	0.512257	-1.83019
H	7.21014	0.963982	0.200726
H	5.25694	-1.11998	0.488157
C	4.24365	0.792188	0.706451
H	4.40341	1.85363	0.420328
H	3.27534	0.447069	0.28957
H	4.18288	0.739363	1.81544
N	4.54597	-0.583833	-2.01901
C	4.57306	-0.579661	-3.46311
H	3.77307	-1.01637	-1.56667
H	3.67357	-1.08827	-3.87478
H	5.47817	-1.10845	-3.84051
H	4.59523	0.463789	-3.8528
