44
  This energy is 0 and Call times are: 16483
C	0.77391	-1.89344	2.81579
C	1.07836	-0.819776	1.84331
O	1.98545	-0.0236492	2.04275
H	1.46559	-1.81118	3.68221
H	0.908315	-2.88845	2.34185
H	-0.270743	-1.79549	3.17938
N	0.311328	-0.772933	0.75159
C	0.458638	0.240342	-0.263364
C	-0.892896	0.453305	-0.918769
O	-1.83556	-0.298068	-0.676807
H	-0.449443	-1.40265	0.62296
H	0.741517	1.17542	0.203795
C	1.50972	-0.179898	-1.31401
H	1.21468	-1.13372	-1.80105
H	1.64234	0.598227	-2.09341
H	2.48865	-0.337944	-0.810949
N	-1.02091	1.49546	-1.76349
C	-2.27074	1.77967	-2.42933
H	-0.247909	2.09474	-1.94348
H	-2.17418	2.67578	-3.08116
H	-3.07715	1.97281	-1.68523
H	-2.58394	0.917787	-3.06194
C	8.48037	-2.48218	-2.05185
C	9.62199	-1.79308	-1.4092
O	10.7448	-2.27831	-1.42548
H	8.82968	-3.44336	-2.48771
H	8.06009	-1.85137	-2.86315
H	7.68974	-2.69414	-1.30149
N	9.35419	-0.62692	-0.816981
C	10.3526	0.13896	-0.113268
C	9.6569	0.93933	0.971639
O	8.42976	0.99351	1.02546
H	8.42734	-0.264734	-0.776664
H	11.0419	-0.537359	0.37664
C	11.109	1.07807	-1.07823
H	10.4036	1.77913	-1.57319
H	11.8899	1.66322	-0.550762
H	11.6036	0.471616	-1.86811
N	10.4309	1.57663	1.87212
C	9.85754	2.35785	2.94318
H	11.422	1.5176	1.81457
H	10.6563	2.80209	3.57706
H	9.20992	1.72236	3.58972
H	9.2326	3.18506	2.53537
