44
  This energy is -0.0324 and Call times are: 12633
C	0.865451	-2.8195	-1.84773
C	-0.11554	-2.00409	-1.09679
O	-1.31043	-2.26428	-1.12747
H	0.329749	-3.62135	-2.40085
H	1.58944	-3.28756	-1.14808
H	1.41303	-2.18476	-2.57599
N	0.376787	-0.980155	-0.395685
C	-0.457745	-0.0716363	0.350444
C	0.241363	1.27352	0.408382
O	1.40006	1.39848	0.0165623
H	1.34707	-0.756314	-0.413416
H	-1.39129	0.0725562	-0.179026
C	-0.720249	-0.607251	1.77503
H	0.236553	-0.745362	2.32229
H	-1.37312	0.0767701	2.35503
H	-1.22511	-1.59569	1.70824
N	-0.455121	2.31975	0.894522
C	0.125876	3.63916	0.982728
H	-1.39298	2.1998	1.2029
H	-0.604157	4.36271	1.40788
H	0.432113	4.00168	-0.025278
H	1.02915	3.6281	1.63474
C	10.52	3.31228	1.05317
C	10.5055	1.8567	1.32194
O	10.5676	1.42327	2.46417
H	10.61	3.86248	2.01496
H	9.57824	3.6181	0.550887
H	11.3848	3.57359	0.407459
N	10.424	1.05715	0.25589
C	10.4428	-0.38102	0.355163
C	11.0344	-0.935929	-0.926882
O	11.2488	-0.202943	-1.89046
H	10.4154	1.42395	-0.669986
H	11.0976	-0.674584	1.16611
C	9.01961	-0.937159	0.57988
H	8.35005	-0.645147	-0.257059
H	9.02255	-2.04263	0.671827
H	8.60337	-0.511666	1.51905
N	11.3214	-2.25206	-0.964682
C	11.8919	-2.86786	-2.14007
H	11.1446	-2.8282	-0.173545
H	12.0552	-3.95555	-1.97422
H	12.8715	-2.4008	-2.39197
H	11.215	-2.74432	-3.0163
