44
  This energy is 0.1054 and Call times are: 5598
C	-1.55424	1.05285	-2.93062
C	-0.668043	1.28795	-1.7685
O	0.0423777	2.28177	-1.70503
H	-1.42875	1.88092	-3.66167
H	-2.61458	1.02037	-2.60294
H	-1.2908	0.0940456	-3.42498
N	-0.689723	0.360479	-0.80844
C	0.148576	0.428934	0.362511
C	0.416457	-0.987301	0.835875
O	-0.184111	-1.94026	0.343026
H	-1.24276	-0.463404	-0.893488
H	1.10261	0.865124	0.0938345
C	-0.528971	1.25386	1.47861
H	-1.50288	0.800832	1.76198
H	0.11262	1.32559	2.38068
H	-0.72276	2.28393	1.10747
N	1.33763	-1.15916	1.80435
C	1.66284	-2.47089	2.31404
H	1.8161	-0.376189	2.18787
H	2.4424	-2.40345	3.10459
H	2.04679	-3.12523	1.49814
H	0.761004	-2.9574	2.75124
C	6.84812	-0.314845	-1.45016
C	5.92471	0.275755	-0.455348
O	6.34422	0.946039	0.478002
H	7.89478	-0.0574996	-1.1779
H	6.63025	0.0886026	-2.46135
H	6.74139	-1.42007	-1.46248
N	4.62426	0.0333477	-0.635511
C	3.60888	0.504591	0.273053
C	2.44142	-0.462806	0.220629
O	2.39891	-1.35325	-0.626133
H	4.30132	-0.548145	-1.37675
H	3.99757	0.486608	1.28361
C	3.14869	1.92959	-0.104911
H	2.74012	1.94644	-1.13779
H	2.37679	2.3091	0.595567
H	4.02046	2.61876	-0.0676154
N	1.46457	-0.314166	1.13698
C	0.317388	-1.1912	1.16794
H	1.51869	0.409767	1.81673
H	-0.37236	-0.907511	1.99317
H	0.634768	-2.24769	1.32403
H	-0.244246	-1.13779	0.207283
