44
  This energy is -3.0016 and Call times are: 13585
C	1.90625	2.76557	-0.911325
C	1.28848	1.88705	0.107355
O	1.58052	1.98763	1.291
H	2.63019	3.44898	-0.416621
H	1.12622	3.37303	-1.4166
H	2.44601	2.15561	-1.6661
N	0.407082	0.989193	-0.339147
C	-0.244115	0.0371875	0.525831
C	-0.570584	-1.19846	-0.291573
O	-0.430173	-1.20076	-1.51305
H	0.2103	0.891995	-1.31059
H	0.4431	-0.264685	1.30637
C	-1.52916	0.636711	1.13776
H	-2.23893	0.936873	0.337657
H	-2.03237	-0.0818975	1.81666
H	-1.26741	1.54406	1.72475
N	-1.00902	-2.28775	0.36968
C	-1.3391	-3.511	-0.323779
H	-1.11229	-2.26792	1.35863
H	-1.67986	-4.28995	0.393391
H	-0.452082	-3.90334	-0.872004
H	-2.15284	-3.33576	-1.06422
C	1.08222	-0.829509	-1.94012
C	1.72035	-0.541126	-0.635983
O	1.04973	-0.367775	0.372301
H	-0.0224649	-0.83338	-1.81561
H	1.40538	-1.82426	-2.31265
H	1.35755	-0.0500505	-2.68155
N	3.05401	-0.480363	-0.628396
C	3.81468	-0.16652	0.555426
C	5.10814	0.498608	0.123991
O	5.43075	0.538552	-1.06177
H	3.58417	-0.58314	-1.46519
H	3.26632	0.551418	1.15249
C	4.10887	-1.44127	1.37622
H	4.68057	-2.17385	0.767513
H	4.6822	-1.21096	2.2975
H	3.14842	-1.9156	1.67435
N	5.8794	1.04717	1.08328
C	7.12502	1.70628	0.766763
H	5.59956	1.0084	2.03683
H	7.61175	2.09148	1.68977
H	6.95131	2.5645	0.0778766
H	7.82775	1.0001	0.268128
