44
  This energy is 0 and Call times are: 18191
C	-1.03306	1.7919	-2.79903
C	-0.221054	0.735095	-2.15487
O	0.381221	-0.0951085	-2.82153
H	-0.993244	1.66425	-3.90266
H	-0.632827	2.79425	-2.53853
H	-2.09005	1.71836	-2.46667
N	-0.188768	0.742192	-0.820218
C	0.522818	-0.248052	-0.0510476
C	-0.175967	-0.399505	1.28698
O	-1.06983	0.37543	1.62194
H	-0.717266	1.3995	-0.290594
H	0.462662	-1.2039	-0.556391
C	1.99696	0.165526	0.151697
H	2.05935	1.14102	0.679472
H	2.55907	-0.595546	0.73077
H	2.48627	0.278265	-0.840379
N	0.212755	-1.41417	2.08409
C	-0.398811	-1.63983	3.37298
H	0.934963	-2.03327	1.79392
H	0.0572202	-2.521	3.87578
H	-1.49159	-1.82633	3.26197
H	-0.265376	-0.751746	4.03225
C	120.051	-3.38703	-0.0538195
C	120.853	-2.24473	0.440304
O	121.598	-2.36384	1.40275
H	120.243	-4.27475	0.587349
H	120.336	-3.63047	-1.09904
H	118.969	-3.14131	-0.0132589
N	120.712	-1.09201	-0.21832
C	121.393	0.117842	0.170706
C	120.541	1.29823	-0.256799
O	119.554	1.13648	-0.972171
H	120.07	-0.99996	-0.974433
H	121.472	0.151644	1.25012
C	122.792	0.196571	-0.478254
H	122.71	0.172553	-1.58585
H	123.332	1.1171	-0.175379
H	123.395	-0.680963	-0.157894
N	120.901	2.52048	0.182044
C	120.147	3.70172	-0.168876
H	121.7	2.6308	0.76346
H	120.601	4.60817	0.288735
H	119.096	3.61764	0.18933
H	120.125	3.8401	-1.2741
