44
  This energy is -2.5483 and Call times are: 12265
C	-1.03144	-2.72724	-1.90026
C	0.0171326	-1.81244	-1.39551
O	1.20425	-2.06104	-1.55476
H	-0.551008	-3.6043	-2.38587
H	-1.66674	-2.20624	-2.64706
H	-1.66491	-3.08358	-1.06072
N	-0.406423	-0.715902	-0.762591
C	0.494927	0.246051	-0.178831
C	-0.210039	0.905125	0.991724
O	-1.40676	0.711079	1.19649
H	-1.37532	-0.547865	-0.60487
H	1.36152	-0.269852	0.215492
C	0.921778	1.30443	-1.21945
H	0.0339861	1.84124	-1.61655
H	1.62684	2.0429	-0.785785
H	1.42829	0.798926	-2.07049
N	0.523342	1.6987	1.79697
C	-0.0605561	2.36354	2.93856
H	1.49123	1.84026	1.61746
H	0.703366	2.96919	3.47413
H	-0.482111	1.61982	3.65302
H	-0.885029	3.04141	2.61938
C	2.05103	-2.43565	-1.05949
C	2.91926	-1.2642	-1.31455
O	3.16229	-0.892646	-2.45442
H	1.72142	-2.8667	-2.02975
H	1.15522	-2.12904	-0.479617
H	2.61014	-3.21034	-0.493522
N	3.41573	-0.648136	-0.239204
C	4.31017	0.479058	-0.328442
C	5.19818	0.476751	0.901602
O	4.9763	-0.289622	1.8371
H	3.242	-0.987108	0.680999
H	4.95349	0.35719	-1.19094
C	3.52111	1.80324	-0.424146
H	2.86884	1.93381	0.465541
H	4.1986	2.67766	-0.507318
H	2.87236	1.77945	-1.32686
N	6.23674	1.33516	0.924626
C	7.13886	1.40015	2.05074
H	6.4025	1.94462	0.15641
H	7.9266	2.16664	1.87985
H	7.63629	0.416496	2.2128
H	6.58717	1.66554	2.98152
