44
  This energy is 0 and Call times are: 17715
C	0.359656	1.87698	2.90865
C	-0.167497	1.6841	1.53896
O	-1.01334	2.43596	1.07455
H	-0.14429	2.75048	3.37654
H	1.45277	2.06851	2.87457
H	0.161678	0.975049	3.52543
N	0.328278	0.652199	0.85212
C	-0.11764	0.311639	-0.475937
C	0.0623627	-1.18261	-0.666657
O	0.66924	-1.85503	0.164764
H	0.986321	0.0248064	1.2586
H	-1.17624	0.52265	-0.562403
C	0.67937	1.09359	-1.54297
H	1.76432	0.869349	-1.4615
H	0.335906	0.850417	-2.56933
H	0.539452	2.18445	-1.37926
N	-0.472344	-1.74097	-1.77044
C	-0.356234	-3.15642	-2.03353
H	-0.963404	-1.18117	-2.42965
H	-0.860768	-3.42156	-2.98871
H	-0.824594	-3.748	-1.21381
H	0.714264	-3.45598	-2.10729
C	90.8382	-3.40769	0.591352
C	91.2257	-2.15024	-0.0867801
O	92.2609	-2.07302	-0.733872
H	91.6224	-4.17601	0.416399
H	89.8738	-3.77967	0.185967
H	90.7388	-3.23812	1.68425
N	90.3887	-1.11931	0.0512623
C	90.6511	0.180679	-0.514195
C	89.9703	1.22087	0.355371
O	89.1983	0.885055	1.25139
H	89.5704	-1.18554	0.615002
H	91.7154	0.37734	-0.479003
C	90.1324	0.265524	-1.96644
H	89.0387	0.0742432	-2.00181
H	90.3409	1.25723	-2.41764
H	90.6381	-0.509612	-2.58265
N	90.2496	2.517	0.114442
C	89.6533	3.57637	0.894414
H	90.8801	2.76887	-0.612302
H	90.0081	4.57051	0.543631
H	89.9195	3.46912	1.97095
H	88.5428	3.55002	0.809098
