44
  This energy is -1.7891 and Call times are: 10797
C	-0.795641	-1.68548	-2.93918
C	-0.317244	-1.66279	-1.53855
O	-0.179951	-2.69694	-0.899728
H	-0.998681	-2.73599	-3.24098
H	-0.0234031	-1.26048	-3.61429
H	-1.73271	-1.0971	-3.03309
N	-0.0507972	-0.460962	-1.02185
C	0.381362	-0.275258	0.340985
C	-0.0787072	1.09543	0.800455
O	-0.561381	1.89763	0.00345711
H	-0.206534	0.374584	-1.54096
H	-0.105402	-1.00753	0.973025
C	1.91678	-0.397202	0.454335
H	2.41659	0.360738	-0.185788
H	2.26075	-0.269881	1.50124
H	2.23166	-1.40492	0.105455
N	0.0536024	1.3936	2.10798
C	-0.361757	2.67153	2.63764
H	0.442671	0.729897	2.73821
H	-0.171518	2.72414	3.7323
H	-1.44999	2.83422	2.46283
H	0.194903	3.50107	2.14455
C	0.275981	0.659901	-3.22705
C	1.03815	-0.153955	-2.25345
O	1.48349	-1.25196	-2.55753
H	0.191346	0.102484	-4.18516
H	0.79935	1.62083	-3.41535
H	-0.744139	0.864656	-2.83911
N	1.20528	0.375586	-1.03935
C	1.88736	-0.315037	0.0266545
C	1.31525	0.168759	1.34582
O	0.542309	1.12415	1.38449
H	0.801752	1.25249	-0.794276
H	1.68061	-1.37558	-0.0450235
C	3.40855	-0.05465	-0.0318323
H	3.62174	1.03233	0.0522579
H	3.94659	-0.592237	0.775648
H	3.80427	-0.409133	-1.0086
N	1.6781	-0.490168	2.46393
C	1.1799	-0.104825	3.76373
H	2.30135	-1.26343	2.41202
H	1.59317	-0.767642	4.55564
H	0.0682893	-0.173169	3.79439
H	1.46785	0.945225	3.99957
