44
  This energy is -1.4431 and Call times are: 12295
C	0.13262	-0.135908	-3.47514
C	0.536056	-0.619852	-2.13567
O	1.15784	-1.66467	-2.00092
H	0.467372	-0.864576	-4.24512
H	0.601941	0.848445	-3.68378
H	-0.972107	-0.037474	-3.52975
N	0.182506	0.142194	-1.09805
C	0.466288	-0.218914	0.268563
C	-0.603942	0.394308	1.15181
O	-1.41413	1.19785	0.693953
H	-0.359004	0.969018	-1.22051
H	0.396013	-1.29417	0.375892
C	1.86659	0.277126	0.690865
H	1.93578	1.38133	0.590962
H	2.10252	-0.00683421	1.73692
H	2.63303	-0.17797	0.026179
N	-0.636697	0.0200187	2.44597
C	-1.62289	0.546677	3.36043
H	0.0247098	-0.634487	2.79702
H	-1.48499	0.117676	4.37737
H	-2.65225	0.300148	3.01269
H	-1.53925	1.65522	3.43301
C	7.11628	3.45313	0.123933
C	7.34809	2.09251	0.658845
O	8.17057	1.89105	1.54166
H	7.79637	4.16923	0.634354
H	6.06577	3.76244	0.30695
H	7.32345	3.47594	-0.96677
N	6.61628	1.11209	0.124415
C	6.75991	-0.269322	0.511224
C	6.37743	-1.13477	-0.674639
O	5.86676	-0.639191	-1.6773
H	5.98014	1.28547	-0.621994
H	7.79985	-0.471137	0.735754
C	5.86938	-0.596446	1.72991
H	4.80128	-0.399569	1.49658
H	5.98155	-1.6538	2.04604
H	6.16156	0.0539799	2.58309
N	6.62536	-2.45664	-0.589814
C	6.30044	-3.35756	-1.67099
H	7.04294	-2.83847	0.22806
H	6.58068	-4.40195	-1.41032
H	6.84527	-3.0698	-2.59923
H	5.20834	-3.33153	-1.88957
