44
  This energy is 0 and Call times are: 16511
C	-2.8312	0.451109	-1.9732
C	-1.83784	-0.413752	-1.29763
O	-2.01057	-1.62101	-1.20221
H	-3.685	-0.171156	-2.31914
H	-2.37023	0.949176	-2.85193
H	-3.21008	1.22127	-1.26864
N	-0.758053	0.19657	-0.803714
C	0.274328	-0.50537	-0.0825817
C	0.910982	0.464156	0.895297
O	0.642525	1.66343	0.858099
H	-0.651236	1.18551	-0.853212
H	-0.174036	-1.30166	0.498385
C	1.33534	-1.07276	-1.05086
H	1.80309	-0.255074	-1.63962
H	2.12843	-1.62741	-0.508753
H	0.845803	-1.77334	-1.76212
N	1.76917	-0.0382665	1.80476
C	2.41896	0.807396	2.77882
H	1.97063	-1.01202	1.82179
H	3.08572	0.208228	3.43734
H	1.66495	1.32141	3.41798
H	3.03336	1.58781	2.27424
C	9.22213	-1.80692	1.7185
C	10.6005	-1.28716	1.57303
O	11.4028	-1.35437	2.49398
H	9.08812	-2.20999	2.74584
H	9.04112	-2.62172	0.986313
H	8.48636	-0.991759	1.55348
N	10.9091	-0.745955	0.392252
C	12.1967	-0.159734	0.114565
C	12.0077	0.923373	-0.930777
O	10.9309	1.06023	-1.50831
H	10.2328	-0.661487	-0.333937
H	12.5721	0.318699	1.01055
C	13.1928	-1.22823	-0.386768
H	12.813	-1.712	-1.31187
H	14.1919	-0.791765	-0.590892
H	13.3095	-2.01459	0.390624
N	13.0558	1.72877	-1.1932
C	12.9675	2.79059	-2.16835
H	13.9177	1.6051	-0.712656
H	13.9321	3.33991	-2.23997
H	12.1707	3.51678	-1.88732
H	12.7217	2.38065	-3.17467
