44
  This energy is 0 and Call times are: 17351
C	2.26203	2.32396	1.26299
C	1.66934	1.55732	0.144003
O	1.92618	1.83468	-1.01941
H	2.90662	3.13201	0.853819
H	2.88184	1.65671	1.8981
H	1.4604	2.78161	1.88027
N	0.846923	0.560038	0.477826
C	0.161337	-0.247347	-0.500264
C	-1.13434	-0.739259	0.116818
O	-1.36493	-0.573521	1.31309
H	0.615592	0.372573	1.4282
H	-0.100283	0.368425	-1.35174
C	1.03721	-1.43984	-0.943025
H	1.29712	-2.07772	-0.0714779
H	0.525827	-2.06139	-1.70637
H	1.98317	-1.05656	-1.38416
N	-2.01943	-1.35269	-0.693345
C	-3.28141	-1.84906	-0.196154
H	-1.81675	-1.47385	-1.65943
H	-3.86878	-2.32011	-1.01489
H	-3.88646	-1.01985	0.236976
H	-3.11792	-2.60998	0.60097
C	66.7684	2.99845	-0.411341
C	66.4926	1.59269	-0.784114
O	66.9497	1.10862	-1.81035
H	67.3985	3.46981	-1.19659
H	67.3108	3.03834	0.556637
H	65.8173	3.5652	-0.325566
N	65.7232	0.896044	0.0555876
C	65.3326	-0.469225	-0.193447
C	63.9947	-0.708825	0.480432
O	63.5125	0.130005	1.23906
H	65.325	1.31597	0.866088
H	65.188	-0.611029	-1.25721
C	66.394	-1.45364	0.344768
H	66.5351	-1.31575	1.43798
H	66.1114	-2.50789	0.146751
H	67.3665	-1.25483	-0.156277
N	63.3566	-1.86458	0.210193
C	62.0761	-2.17704	0.800879
H	63.7608	-2.52919	-0.409463
H	61.7156	-3.17093	0.455256
H	61.3167	-1.41171	0.519998
H	62.1505	-2.19788	1.91226
