44
  This energy is -0.8573 and Call times are: 11167
C	-0.289594	2.78391	2.06849
C	-0.340511	1.32313	1.83468
O	-0.41343	0.534969	2.76736
H	-0.310343	2.98176	3.16225
H	-1.16534	3.27766	1.5973
H	0.645453	3.20697	1.64446
N	-0.300156	0.924193	0.56126
C	-0.298193	-0.465669	0.178065
C	0.436749	-0.590977	-1.14319
O	0.764533	0.409132	-1.77884
H	-0.199501	1.5759	-0.185073
H	0.256661	-1.0376	0.911319
C	-1.73984	-1.00439	0.0489768
H	-2.3063	-0.424734	-0.71074
H	-1.75159	-2.07739	-0.232168
H	-2.26113	-0.895401	1.02506
N	0.721496	-1.83182	-1.58507
C	1.4228	-2.04884	-2.82896
H	0.451717	-2.6287	-1.05471
H	1.56178	-3.1362	-3.01753
H	2.42677	-1.56649	-2.80316
H	0.853087	-1.6148	-3.68229
C	7.39304	1.80153	-1.46402
C	6.71251	0.527917	-1.13855
O	7.0537	-0.523818	-1.66186
H	8.18386	1.61213	-2.22204
H	7.86317	2.22791	-0.553018
H	6.66445	2.52954	-1.87902
N	5.71587	0.597032	-0.252942
C	4.93197	-0.55022	0.131594
C	3.54952	-0.0671605	0.527902
O	3.31136	1.13341	0.644604
H	5.42288	1.46685	0.133618
H	4.81242	-1.204	-0.723335
C	5.59773	-1.30599	1.30241
H	5.71101	-0.63869	2.18328
H	5.01075	-2.19942	1.59864
H	6.61099	-1.64321	0.992666
N	2.59797	-0.998202	0.737033
C	1.25196	-0.632396	1.11203
H	2.80874	-1.96463	0.633733
H	0.61871	-1.53822	1.23738
H	0.788684	0.0138269	0.331613
H	1.25116	-0.0681034	2.07261
