44
  This energy is -2.1825 and Call times are: 2372
C	0.931935	-2.13384	2.58668
C	1.22777	-1.3843	1.34498
O	2.37389	-1.26835	0.933438
H	1.88234	-2.50981	3.02401
H	0.2721	-2.99851	2.36375
H	0.434415	-1.47015	3.32498
N	0.181734	-0.848123	0.711968
C	0.315687	-0.0550481	-0.484546
C	-0.836054	0.931369	-0.529576
O	-1.76664	0.849905	0.269855
H	-0.740654	-0.916365	1.08131
H	1.2314	0.520482	-0.430989
C	0.311472	-0.950198	-1.74309
H	-0.632282	-1.53299	-1.80409
H	0.427924	-0.352415	-2.67024
H	1.15763	-1.66921	-1.68488
N	-0.795067	1.89807	-1.46757
C	-1.84384	2.88447	-1.58279
H	-0.0317318	1.95018	-2.10293
H	-1.62809	3.59274	-2.41287
H	-1.93869	3.46899	-0.639069
H	-2.82367	2.39455	-1.78539
C	3.78955	1.80874	2.59004
C	4.31655	1.70147	1.21094
O	4.1298	2.5899	0.391044
H	3.23059	2.76378	2.69637
H	4.62524	1.79813	3.32097
H	3.1013	0.963862	2.80349
N	4.99666	0.589997	0.920303
C	5.53308	0.32316	-0.391034
C	5.58379	-1.18072	-0.584281
O	5.35991	-1.94405	0.353222
H	5.10526	-0.142503	1.58627
H	4.8605	0.722131	-1.14008
C	6.94183	0.936831	-0.546182
H	7.63491	0.520007	0.215361
H	7.36001	0.750082	-1.55651
H	6.88202	2.0365	-0.392897
N	5.87324	-1.6434	-1.81642
C	5.93831	-3.05888	-2.09632
H	6.04737	-1.01016	-2.56326
H	6.18917	-3.23727	-3.16519
H	4.9608	-3.54749	-1.87949
H	6.71621	-3.54866	-1.46693
