44
  This energy is -4.9378 and Call times are: 6755
C	-2.75132	2.11571	0.258203
C	-1.82578	1.27183	-0.530705
O	-2.06924	0.981946	-1.69394
H	-3.63035	2.38157	-0.368304
H	-2.24119	3.04917	0.576261
H	-3.10305	1.56301	1.15481
N	-0.725551	0.850502	0.0972702
C	0.247082	-0.0123759	-0.525615
C	0.91352	-0.835529	0.560587
O	0.714743	-0.589379	1.7487
H	-0.561443	1.0609	1.05679
H	-0.260083	-0.702683	-1.1881
C	1.29768	0.810934	-1.30256
H	1.82561	1.51183	-0.621332
H	2.04429	0.157182	-1.79824
H	0.786799	1.41132	-2.0867
N	1.71899	-1.84473	0.174905
C	2.39159	-2.68527	1.13786
H	1.86424	-2.03106	-0.791147
H	3.0067	-3.45688	0.624564
H	1.65249	-3.20361	1.7908
H	3.06168	-2.07851	1.78899
C	3.77717	2.58016	1.39573
C	4.4923	1.95571	0.260026
O	4.38467	2.3974	-0.87564
H	3.17139	3.43461	1.02318
H	4.5044	2.95535	2.14614
H	3.10027	1.84143	1.87444
N	5.2495	0.894249	0.546952
C	5.97099	0.154923	-0.458733
C	6.10749	-1.27959	0.0157195
O	5.78759	-1.59779	1.15945
H	5.29471	0.521601	1.46942
H	5.39225	0.138329	-1.37383
C	7.36219	0.777168	-0.708998
H	7.96021	0.7848	0.227143
H	7.92216	0.225027	-1.49136
H	7.23824	1.82898	-1.04761
N	6.58146	-2.18596	-0.861701
C	6.74055	-3.57554	-0.501273
H	6.83113	-1.91016	-1.78402
H	7.14262	-4.16042	-1.35771
H	5.76274	-4.01833	-0.202778
H	7.44356	-3.68112	0.356501
