44
  This energy is -2.0682 and Call times are: 6662
C	-0.921221	-3.30425	0.588167
C	0.0308967	-2.17666	0.702774
O	1.0058	-2.24368	1.43863
H	-0.598111	-4.12768	1.26156
H	-0.943643	-3.68161	-0.455789
H	-1.93998	-2.97652	0.884495
N	-0.237304	-1.09625	-0.0342207
C	0.57299	0.0956243	0.00359388
C	-0.314047	1.28128	-0.326486
O	-1.46468	1.11489	-0.726571
H	-1.05695	-1.041	-0.597238
H	0.946158	0.24212	1.00953
C	1.74334	-0.00087991	-0.9995
H	1.36076	-0.140613	-2.03301
H	2.38273	0.905118	-0.969978
H	2.37447	-0.879834	-0.743629
N	0.201995	2.51458	-0.157077
C	-0.56959	3.70227	-0.440295
H	1.13367	2.62905	0.171489
H	0.0291485	4.61766	-0.238284
H	-1.48563	3.73583	0.192961
H	-0.887184	3.71934	-1.508
C	7.80272	2.14633	2.60363
C	8.16262	1.19876	1.52487
O	9.32347	1.06117	1.16444
H	8.72039	2.66262	2.96026
H	7.3435	1.60084	3.45469
H	7.08791	2.90605	2.22291
N	7.15621	0.514833	0.97553
C	7.34408	-0.411574	-0.113061
C	6.06415	-0.451282	-0.926565
O	5.04477	0.106246	-0.524407
H	6.2116	0.667731	1.25156
H	8.1283	-0.0443996	-0.763291
C	7.69378	-1.82005	0.415272
H	6.88471	-2.20156	1.07398
H	7.8545	-2.53933	-0.413785
H	8.62911	-1.76563	1.01405
N	6.09069	-1.10935	-2.10226
C	4.92217	-1.19548	-2.94683
H	6.92609	-1.55072	-2.41272
H	5.14512	-1.7768	-3.86857
H	4.57934	-0.179054	-3.24788
H	4.085	-1.69713	-2.40959
