44
  This energy is -0.0534 and Call times are: 16427
C	1.68581	-2.5604	-1.64775
C	0.634799	-2.07441	-0.725619
O	-0.247624	-2.81958	-0.322551
H	1.50243	-3.6316	-1.8818
H	2.68543	-2.46193	-1.17466
H	1.66526	-1.97748	-2.59268
N	0.706781	-0.790229	-0.367748
C	-0.268144	-0.162532	0.489035
C	-0.329061	1.31157	0.135651
O	0.491838	1.80952	-0.632385
H	1.4073	-0.185949	-0.736503
H	-1.24517	-0.583383	0.286717
C	0.103903	-0.347842	1.97648
H	1.10158	0.0930783	2.18687
H	-0.646518	0.119186	2.64676
H	0.150505	-1.43383	2.21058
N	-1.31585	2.04618	0.685765
C	-1.45628	3.45567	0.403327
H	-1.97307	1.62454	1.30168
H	-2.3267	3.88139	0.949558
H	-1.61027	3.62432	-0.687142
H	-0.541801	4.01159	0.712882
C	7.96286	0.650539	-2.85101
C	8.72836	1.09639	-1.6651
O	9.03513	2.27097	-1.5146
H	7.76763	1.52318	-3.5115
H	6.99188	0.212855	-2.53738
H	8.54343	-0.106979	-3.41861
N	9.06077	0.150642	-0.783364
C	9.84166	0.423635	0.397414
C	10.6102	-0.833883	0.757402
O	10.3826	-1.89707	0.183334
H	8.83931	-0.807612	-0.940088
H	10.5695	1.1937	0.174177
C	8.93533	0.858613	1.56985
H	8.19526	0.0645733	1.80617
H	9.52615	1.08506	2.48098
H	8.37681	1.77574	1.28127
N	11.5507	-0.738492	1.71776
C	12.3359	-1.88108	2.12296
H	11.7233	0.131348	2.16795
H	13.0548	-1.60017	2.92394
H	12.913	-2.28683	1.26064
H	11.6782	-2.69244	2.5106
