44
  This energy is -3.6517 and Call times are: 8735
C	2.88254	-0.230544	-1.93662
C	1.66197	-0.819509	-1.34124
O	1.25668	-1.92052	-1.68753
H	3.29237	-0.927797	-2.69935
H	3.64998	-0.0654001	-1.15144
H	2.64115	0.736352	-2.42645
N	1.03808	-0.0844893	-0.417726
C	-0.184773	-0.50503	0.219722
C	-0.963466	0.735759	0.614228
O	-0.455492	1.85209	0.527704
H	1.35717	0.827436	-0.175978
H	-0.789246	-1.0522	-0.492914
C	0.111039	-1.37591	1.46041
H	0.722268	-0.81142	2.19647
H	-0.822815	-1.71752	1.95208
H	0.688258	-2.2739	1.1493
N	-2.227	0.568192	1.05176
C	-3.04625	1.69117	1.4441
H	-2.62201	-0.342595	1.11094
H	-4.05183	1.3483	1.77345
H	-3.17829	2.3975	0.592665
H	-2.57287	2.24838	2.28467
C	5.98087	2.44678	-2.47489
C	6.3225	1.09695	-1.97247
O	6.75454	0.232841	-2.72284
H	6.16598	2.48868	-3.57026
H	6.61061	3.2121	-1.97445
H	4.90952	2.66676	-2.28282
N	6.13056	0.882847	-0.668741
C	6.37651	-0.392142	-0.0422697
C	5.44971	-0.518892	1.15211
O	4.78292	0.439969	1.5364
H	5.73963	1.58337	-0.078576
H	6.12143	-1.18521	-0.734082
C	7.85091	-0.513689	0.401138
H	8.11016	0.29347	1.119
H	8.05626	-1.49661	0.872539
H	8.51113	-0.410009	-0.48751
N	5.3802	-1.71691	1.76525
C	4.52165	-1.93332	2.90641
H	5.92432	-2.48201	1.43718
H	4.60449	-2.98209	3.26759
H	3.45769	-1.73733	2.64024
H	4.79964	-1.25139	3.74237
