44
  This energy is -0.0164 and Call times are: 15920
C	1.7643	0.856348	-2.87517
C	0.540527	0.38401	-2.1893
O	-0.524663	0.296084	-2.78432
H	1.52091	1.10472	-3.93108
H	2.54066	0.062719	-2.86244
H	2.15734	1.76573	-2.37352
N	0.668469	0.0665433	-0.898866
C	-0.441658	-0.367069	-0.0875959
C	-0.162625	0.0334297	1.34882
O	0.936509	0.47601	1.67706
H	1.53285	0.182334	-0.417918
H	-1.3376	0.154907	-0.399771
C	-0.639823	-1.89496	-0.194984
H	0.275352	-2.43115	0.135152
H	-1.50039	-2.23934	0.414406
H	-0.834688	-2.16611	-1.25558
N	-1.16189	-0.105923	2.24218
C	-0.990487	0.254387	3.63034
H	-2.04553	-0.461968	1.95675
H	-1.92516	0.067138	4.20353
H	-0.730412	1.33343	3.72683
H	-0.170213	-0.341109	4.09259
C	13.481	1.18034	-0.77522
C	12.5699	0.281324	-0.031637
O	13.0013	-0.663015	0.6153
H	14.5285	0.831733	-0.64444
H	13.3962	2.2172	-0.387313
H	13.2309	1.16902	-1.85707
N	11.2665	0.559183	-0.11125
C	10.2555	-0.24993	0.522519
C	8.97827	-0.131265	-0.287563
O	8.88384	0.689818	-1.19784
H	10.9276	1.30689	-0.675071
H	10.5599	-1.28876	0.494502
C	10.0172	0.205509	1.97891
H	9.69475	1.26816	2.00749
H	9.25068	-0.418708	2.48216
H	10.9667	0.117775	2.55084
N	7.96223	-0.960669	0.0218889
C	6.71057	-0.924087	-0.697972
H	8.05899	-1.62117	0.759083
H	6.00304	-1.68205	-0.295332
H	6.87318	-1.13615	-1.77958
H	6.23609	0.0800893	-0.610583
