44
  This energy is -2.7391 and Call times are: 13728
C	-3.33664	-0.964175	-0.223417
C	-1.89162	-1.214	-0.425035
O	-1.47737	-2.32464	-0.72719
H	-3.8976	-1.91233	-0.372461
H	-3.70075	-0.212409	-0.95486
H	-3.52108	-0.595812	0.807787
N	-1.07938	-0.167879	-0.256894
C	0.35407	-0.265046	-0.376642
C	0.975988	0.793258	0.514855
O	0.2798	1.65242	1.05232
H	-1.42753	0.720308	0.0290884
H	0.678847	-1.22968	-0.00700541
C	0.799822	-0.0686149	-1.84223
H	0.476033	0.92515	-2.21857
H	1.90051	-0.154961	-1.94976
H	0.326549	-0.848876	-2.47749
N	2.31012	0.74974	0.699862
C	2.9891	1.71216	1.53588
H	2.85605	0.0444871	0.259808
H	4.08235	1.50877	1.56154
H	2.60017	1.66984	2.57905
H	2.83353	2.74603	1.1511
C	6.68351	1.79855	2.42342
C	5.43164	1.25268	1.85244
O	4.38668	1.26754	2.48825
H	6.48726	2.16674	3.45384
H	7.05026	2.64356	1.80359
H	7.46133	1.00722	2.46662
N	5.5125	0.748053	0.619065
C	4.38931	0.142735	-0.05218
C	4.92123	-0.896723	-1.02076
O	6.12612	-0.987386	-1.24819
H	6.37908	0.705901	0.130069
H	3.7767	-0.376733	0.674102
C	3.5565	1.20551	-0.801968
H	4.18186	1.73147	-1.55452
H	2.68081	0.753794	-1.31153
H	3.1842	1.95998	-0.0749806
N	4.02881	-1.71603	-1.61096
C	4.44283	-2.73912	-2.54265
H	3.05837	-1.63002	-1.41114
H	3.56382	-3.30763	-2.91864
H	5.14106	-3.45646	-2.05359
H	4.96761	-2.28704	-3.41522
