44
  This energy is -8.3509 and Call times are: 5691
C	-0.646573	-0.0966634	-3.41837
C	0.170972	0.323391	-2.25807
O	1.2802	0.816143	-2.41048
H	-0.0807496	0.0966253	-4.35558
H	-1.59558	0.47896	-3.44633
H	-0.87431	-1.18156	-3.35336
N	-0.368154	0.131923	-1.05181
C	0.323727	0.450558	0.172257
C	-0.184484	-0.478641	1.25847
O	-1.15441	-1.20785	1.06047
H	-1.25493	-0.307952	-0.942248
H	1.38095	0.252524	0.0469751
C	0.0922391	1.92508	0.569056
H	-0.991418	2.12612	0.707996
H	0.631173	2.18655	1.50271
H	0.464283	2.58656	-0.243573
N	0.469233	-0.479504	2.4369
C	0.0610278	-1.33446	3.52713
H	1.25444	0.114601	2.57677
H	0.723007	-1.19002	4.40925
H	0.108408	-2.40581	3.22508
H	-0.985928	-1.10809	3.83337
C	4.86025	-2.57807	2.33768
C	4.33029	-1.31078	1.78605
O	3.2696	-0.844304	2.17814
H	4.14708	-2.97728	3.09126
H	5.84035	-2.40153	2.82857
H	4.98271	-3.32678	1.52682
N	5.06959	-0.717721	0.845784
C	4.66407	0.497665	0.184769
C	5.27366	0.506568	-1.20444
O	6.10625	-0.336656	-1.53225
H	5.91044	-1.13077	0.507812
H	3.58786	0.497066	0.0647825
C	5.11922	1.73851	0.983763
H	6.22418	1.7451	1.09807
H	4.80089	2.68058	0.492143
H	4.66765	1.70698	1.99936
N	4.86348	1.46252	-2.06113
C	5.38395	1.54632	-3.40585
H	4.1859	2.13357	-1.7789
H	4.92349	2.39802	-3.9534
H	5.16847	0.60976	-3.9695
H	6.48805	1.69431	-3.39146
