44
  This energy is 0.1159 and Call times are: 1285
C	-1.33074	1.12374	-3.01314
C	-0.187437	0.865877	-2.10898
O	0.96586	0.938711	-2.51024
H	-0.948969	1.35388	-4.03155
H	-1.92094	1.98971	-2.64641
H	-1.98455	0.227878	-3.06841
N	-0.488187	0.551039	-0.846917
C	0.514617	0.231316	0.138334
C	-0.102443	-0.714158	1.15168
O	-1.3095	-0.947883	1.14145
H	-1.4326	0.455613	-0.545517
H	1.33019	-0.296337	-0.340265
C	1.0311	1.50943	0.834695
H	0.196521	2.04556	1.33477
H	1.81376	1.27778	1.58589
H	1.47106	2.18993	0.0733182
N	0.71949	-1.28989	2.05112
C	0.223015	-2.20743	3.05002
H	1.69398	-1.09153	2.04096
H	1.05227	-2.57324	3.6948
H	-0.261132	-3.08785	2.56862
H	-0.533119	-1.70991	3.69954
C	5.08167	3.47739	-0.125989
C	4.68084	2.14673	-0.635732
O	3.7911	2.02899	-1.46695
H	4.44909	4.25846	-0.600989
H	6.14552	3.67726	-0.372991
H	4.94308	3.52312	0.974817
N	5.33924	1.09747	-0.137762
C	5.03265	-0.262643	-0.504699
C	5.39459	-1.16068	0.663246
O	6.01184	-0.718259	1.63019
H	6.03296	1.2061	0.568494
H	3.96605	-0.357359	-0.665981
C	5.81116	-0.681245	-1.77117
H	6.90574	-0.594307	-1.60273
H	5.57309	-1.72211	-2.07192
H	5.53671	-0.00578131	-2.61067
N	5.00846	-2.45038	0.603443
C	5.3034	-3.37799	1.67055
H	4.50624	-2.78886	-0.185412
H	4.90305	-4.38866	1.43496
H	4.84691	-3.03441	2.62703
H	6.40351	-3.46348	1.82419
