44
  This energy is 0 and Call times are: 17183
C	3.30835	-0.40998	0.999694
C	2.13837	0.439762	0.683117
O	2.13077	1.63274	0.953608
H	4.08545	0.206961	1.50108
H	3.73461	-0.836992	0.0676479
H	3.0094	-1.23448	1.6808
N	1.10549	-0.167851	0.0946069
C	-0.119211	0.517653	-0.235155
C	-1.25062	-0.492441	-0.200837
O	-1.01849	-1.69448	-0.0871336
H	1.11039	-1.14796	-0.0820891
H	-0.327731	1.26147	0.523716
C	-0.0243051	1.17727	-1.6284
H	0.179139	0.413193	-2.40868
H	-0.956264	1.72002	-1.88802
H	0.815007	1.90657	-1.63277
N	-2.51069	-0.0231981	-0.290604
C	-3.65109	-0.909097	-0.2612
H	-2.67866	0.953138	-0.377946
H	-4.59879	-0.333168	-0.347194
H	-3.67639	-1.48527	0.692038
H	-3.60522	-1.63693	-1.1034
C	53.8032	1.05973	-3.30119
C	54.2197	1.08475	-1.88097
O	55.2536	1.639	-1.53422
H	54.5665	1.58299	-3.91709
H	52.8277	1.57581	-3.42305
H	53.7131	0.0110694	-3.65513
N	53.4102	0.471781	-1.01419
C	53.7033	0.375261	0.394106
C	53.0535	-0.887806	0.927004
O	52.2772	-1.53875	0.230391
H	52.593	-0.0102234	-1.31709
H	54.7724	0.270012	0.530044
C	53.1803	1.61474	1.15269
H	52.0819	1.71718	1.02221
H	53.4122	1.55882	2.23604
H	53.6632	2.52777	0.740894
N	53.3649	-1.26988	2.18122
C	52.7996	-2.46108	2.77086
H	53.9983	-0.732358	2.72798
H	53.1782	-2.60478	3.80683
H	53.0679	-3.36124	2.17167
H	51.6885	-2.39099	2.81
