44
  This energy is 0 and Call times are: 16931
C	1.5137	-0.188946	-3.12821
C	0.477064	-0.600663	-2.15506
O	-0.480553	-1.27945	-2.49949
H	1.24616	-0.575743	-4.13553
H	2.50075	-0.603869	-2.83443
H	1.57735	0.918735	-3.17386
N	0.647863	-0.189431	-0.896454
C	-0.298378	-0.474271	0.153334
C	-0.218239	0.641681	1.17792
O	0.669499	1.49015	1.11686
H	1.41091	0.396877	-0.639799
H	-1.30057	-0.464336	-0.256717
C	0.00336026	-1.83773	0.813017
H	1.02757	-1.84482	1.24311
H	-0.726766	-2.07487	1.61377
H	-0.0530359	-2.63828	0.0434134
N	-1.15615	0.671051	2.14513
C	-1.16331	1.69858	3.16017
H	-1.86892	-0.0218457	2.17558
H	-2.01211	1.55056	3.86362
H	-1.26342	2.70711	2.69743
H	-0.215416	1.67974	3.74522
C	40.1736	0.735534	2.8716
C	39.8979	0.896064	1.42615
O	40.4345	1.78084	0.773778
H	40.8846	1.5247	3.19972
H	40.6261	-0.259441	3.06668
H	39.2333	0.83434	3.45386
N	39.0377	0.0294724	0.886283
C	38.6372	0.0860119	-0.497562
C	37.2377	-0.48889	-0.608862
O	36.7094	-1.05013	0.349051
H	38.5777	-0.659594	1.43896
H	38.5869	1.12074	-0.812888
C	39.6199	-0.704624	-1.38895
H	39.6639	-1.76858	-1.07255
H	39.3301	-0.657145	-2.45867
H	40.6388	-0.271667	-1.28561
N	36.5981	-0.353687	-1.78726
C	35.2615	-0.864323	-1.98479
H	37.0404	0.107149	-2.54952
H	34.9093	-0.654637	-3.0188
H	34.5505	-0.390903	-1.26954
H	35.2335	-1.96596	-1.82125
