44
  This energy is -5.4046 and Call times are: 11223
C	-0.240832	1.24236	3.2421
C	-0.0861687	0.126029	2.2824
O	0.228675	-0.994162	2.65984
H	-0.0126482	0.879255	4.26775
H	-1.283	1.62463	3.21977
H	0.460067	2.06533	2.98802
N	-0.306042	0.413431	0.997323
C	-0.152732	-0.55755	-0.0573104
C	0.224642	0.180082	-1.32815
O	0.190378	1.40814	-1.37735
H	-0.521634	1.33946	0.700907
H	0.667022	-1.22217	0.185419
C	-1.45683	-1.35889	-0.263283
H	-2.29584	-0.678586	-0.522671
H	-1.34724	-2.11933	-1.06343
H	-1.71803	-1.88394	0.681407
N	0.604151	-0.557665	-2.3901
C	0.986218	0.0572219	-3.63995
H	0.629478	-1.55003	-2.32974
H	1.2654	-0.715837	-4.38939
H	1.85843	0.734848	-3.49386
H	0.146116	0.660289	-4.05429
C	4.84733	2.42016	2.22244
C	4.39441	1.0454	1.91249
O	4.52065	0.139183	2.72443
H	5.29649	2.43841	3.23918
H	3.9869	3.12142	2.19701
H	5.61171	2.7464	1.48599
N	3.84943	0.857442	0.708307
C	3.40121	-0.432774	0.246793
C	3.51903	-0.461292	-1.26545
O	3.78235	0.560844	-1.89601
H	3.79085	1.59606	0.042824
H	4.05909	-1.19975	0.636112
C	1.94316	-0.698183	0.681412
H	1.26629	0.0825223	0.273509
H	1.59096	-1.69446	0.343912
H	1.87908	-0.664721	1.79097
N	3.33357	-1.64363	-1.88488
C	3.43145	-1.76839	-3.32051
H	3.12532	-2.46052	-1.35724
H	3.24709	-2.81853	-3.63747
H	4.44516	-1.46887	-3.6726
H	2.68374	-1.11361	-3.82383
