44
  This energy is -1.0572 and Call times are: 11670
C	1.74849	0.536544	2.96101
C	1.15215	1.01714	1.6943
O	1.04443	2.21271	1.45892
H	2.02788	1.40963	3.58994
H	2.65987	-0.0621515	2.75203
H	1.01631	-0.0867904	3.51641
N	0.742678	0.0786955	0.837541
C	0.103824	0.391436	-0.4165
C	-0.822593	-0.755415	-0.774321
O	-0.806972	-1.80226	-0.129669
H	0.799662	-0.890169	1.06097
H	-0.509525	1.27546	-0.294262
C	1.15147	0.608921	-1.53022
H	1.77407	-0.301415	-1.66325
H	0.67254	0.864047	-2.49772
H	1.82325	1.44729	-1.24351
N	-1.66278	-0.579719	-1.81319
C	-2.58431	-1.61355	-2.22327
H	-1.66361	0.275928	-2.32008
H	-3.18903	-1.27833	-3.09457
H	-3.28008	-1.87173	-1.3923
H	-2.03429	-2.53809	-2.51285
C	5.20089	-2.23304	2.24196
C	5.48433	-0.858595	1.77108
O	4.902	0.106237	2.2469
H	4.41265	-2.19774	3.02509
H	6.11755	-2.68592	2.67484
H	4.84185	-2.86002	1.39872
N	6.40004	-0.738586	0.807
C	6.75141	0.529172	0.21718
C	7.20923	0.277514	-1.20712
O	7.38977	-0.8673	-1.61763
H	6.83579	-1.53689	0.40118
H	5.86998	1.15619	0.16665
C	7.86555	1.22548	1.02902
H	8.77369	0.587168	1.07225
H	8.13529	2.20908	0.592788
H	7.51155	1.39248	2.06976
N	7.40052	1.34948	-2.00105
C	7.83043	1.20722	-3.37258
H	7.24531	2.26775	-1.6521
H	7.93028	2.20269	-3.85869
H	7.09515	0.605326	-3.95427
H	8.81648	0.691254	-3.42391
