44
  This energy is -0.0295 and Call times are: 14939
C	-1.84074	2.37507	-1.75596
C	-0.875635	1.99387	-0.700311
O	-0.214272	2.83846	-0.112371
H	-1.81808	3.47801	-1.89341
H	-2.86764	2.07034	-1.46382
H	-1.56984	1.88764	-2.71623
N	-0.771126	0.689684	-0.434672
C	0.155563	0.162222	0.535685
C	0.533505	-1.24482	0.112652
O	-0.0557474	-1.8048	-0.8098
H	-1.28632	0.0109162	-0.950153
H	1.0608	0.756409	0.524921
C	-0.46977	0.153514	1.94782
H	-1.39273	-0.464534	1.96191
H	0.23896	-0.237581	2.70628
H	-0.745812	1.19208	2.23336
N	1.53843	-1.84881	0.777001
C	1.97105	-3.18523	0.440876
H	2.00592	-1.37801	1.51786
H	2.8082	-3.50498	1.09979
H	2.31997	-3.23091	-0.616215
H	1.13413	-3.91087	0.559835
C	7.42916	0.967947	2.89072
C	7.38618	0.705448	1.43456
O	8.30416	1.0481	0.702224
H	8.37029	1.50481	3.13952
H	7.40188	0.0109847	3.45306
H	6.56571	1.59802	3.19162
N	6.29813	0.0825642	0.975689
C	6.09313	-0.203015	-0.422515
C	4.59931	-0.228596	-0.685971
O	3.79516	-0.188656	0.243247
H	5.54097	-0.153503	1.57805
H	6.51168	0.600057	-1.01624
C	6.73443	-1.55364	-0.809538
H	6.29786	-2.37931	-0.208105
H	6.59538	-1.77833	-1.8869
H	7.8259	-1.51483	-0.600923
N	4.1916	-0.287738	-1.96905
C	2.78983	-0.31065	-2.31646
H	4.85726	-0.315215	-2.70743
H	2.65891	-0.359995	-3.41994
H	2.27768	0.605765	-1.94342
H	2.28706	-1.19568	-1.8636
