44
  This energy is -2.4441 and Call times are: 5291
C	-0.757435	1.23109	3.16597
C	-0.721502	0.140069	2.16622
O	-0.948688	-1.01876	2.48546
H	-0.992031	0.805478	4.16582
H	-1.54082	1.97063	2.8974
H	0.228989	1.73879	3.21398
N	-0.427713	0.493253	0.91269
C	-0.313399	-0.461786	-0.161271
C	0.66333	0.0897583	-1.18272
O	1.07795	1.24418	-1.09829
H	-0.205001	1.43469	0.676132
H	0.107334	-1.38268	0.222881
C	-1.68814	-0.725281	-0.813885
H	-2.11542	0.217353	-1.2175
H	-1.6157	-1.46948	-1.6333
H	-2.38892	-1.12077	-0.0465183
N	1.0621	-0.731804	-2.1737
C	1.99366	-0.296175	-3.1879
H	0.718742	-1.66387	-2.22294
H	2.19674	-1.1148	-3.91305
H	2.96022	0.0117229	-2.72722
H	1.58515	0.575663	-3.7484
C	3.98645	3.12665	-0.214493
C	4.61079	1.93578	-0.83352
O	4.56015	1.75039	-2.04161
H	3.49791	3.73762	-1.00436
H	4.75825	3.74397	0.291462
H	3.21898	2.81542	0.525235
N	5.22197	1.08716	-0.00364526
C	5.83773	-0.136754	-0.452449
C	5.78479	-1.13802	0.68607
O	5.42794	-0.793983	1.81124
H	5.21943	1.23074	0.981868
H	5.26009	-0.548055	-1.27085
C	7.29834	0.108727	-0.890171
H	7.89396	0.520816	-0.0478711
H	7.77911	-0.823593	-1.25095
H	7.31351	0.850308	-1.71852
N	6.13342	-2.41134	0.415641
C	6.10858	-3.43456	1.43475
H	6.41548	-2.67143	-0.501894
H	6.42836	-4.41427	1.01625
H	5.0815	-3.54966	1.85084
H	6.79319	-3.17095	2.27318
