44
  This energy is -2.3599 and Call times are: 2223
C	1.45996	-2.58657	1.81407
C	0.572808	-1.40612	1.71097
O	-0.19483	-1.1102	2.61627
H	1.27823	-3.09901	2.78374
H	2.52352	-2.27119	1.76805
H	1.24919	-3.29707	0.987108
N	0.659072	-0.695561	0.584002
C	-0.170265	0.453851	0.320161
C	-0.348736	0.573613	-1.18162
O	0.302597	-0.129964	-1.95134
H	1.25929	-0.972532	-0.16091
H	-1.15116	0.292785	0.749739
C	0.467936	1.73798	0.893715
H	1.46982	1.90938	0.445506
H	-0.167888	2.62802	0.70912
H	0.596433	1.62479	1.99236
N	-1.24848	1.46857	-1.63498
C	-1.49005	1.64833	-3.0476
H	-1.7689	2.02593	-0.996547
H	-2.26443	2.4284	-3.21801
H	-1.84238	0.697852	-3.50991
H	-0.556604	1.96075	-3.56935
C	5.26774	-3.20174	1.3445
C	5.75826	-2.24989	0.322475
O	6.61911	-2.57469	-0.48366
H	5.81128	-4.16579	1.23947
H	4.18134	-3.38484	1.20682
H	5.44801	-2.79662	2.36256
N	5.21273	-1.03145	0.335899
C	5.61793	0.0155581	-0.568617
C	5.3828	1.349	0.115658
O	4.77137	1.41124	1.18055
H	4.54254	-0.76914	1.0243
H	6.68101	-0.0670865	-0.757428
C	4.82528	-0.0612017	-1.8919
H	3.73531	0.034108	-1.69978
H	5.13796	0.731389	-2.60221
H	5.00597	-1.04809	-2.37121
N	5.87411	2.45306	-0.480722
C	5.70395	3.76478	0.0994495
H	6.36968	2.38211	-1.34005
H	6.17836	4.54194	-0.539455
H	6.16939	3.8104	1.11067
H	4.62248	4.01026	0.205793
