44
  This energy is -1.9257 and Call times are: 10029
C	-2.81684	-1.79022	0.986521
C	-2.16717	-0.693971	0.233312
O	-2.78371	-0.0486836	-0.603284
H	-3.86941	-1.89696	0.645092
H	-2.81286	-1.56267	2.07324
H	-2.28219	-2.74686	0.807417
N	-0.884298	-0.457658	0.517499
C	-0.106123	0.547478	-0.162725
C	1.34605	0.108573	-0.152456
O	1.70679	-0.859144	0.514708
H	-0.384607	-1.01826	1.17164
H	-0.419362	0.601831	-1.19789
C	-0.261008	1.92269	0.522881
H	0.0701202	1.87005	1.58195
H	0.322501	2.70805	0.000147273
H	-1.33232	2.22015	0.510904
N	2.21674	0.810503	-0.904264
C	3.61758	0.463198	-0.961098
H	1.9052	1.58796	-1.44052
H	4.16808	1.15808	-1.63289
H	3.74978	-0.574131	-1.34547
H	4.07732	0.517086	0.0522518
C	11.2201	1.87222	-0.608462
C	9.84025	1.45539	-0.945354
O	9.18621	2.05381	-1.78829
H	11.4919	2.76494	-1.21262
H	11.9338	1.05293	-0.836631
H	11.2889	2.1328	0.468773
N	9.35933	0.402383	-0.280309
C	8.0188	-0.093924	-0.467929
C	7.56976	-0.74452	0.826931
O	8.36335	-0.927589	1.74802
H	9.88894	-0.0490342	0.432147
H	7.35305	0.738608	-0.658425
C	7.96386	-1.10843	-1.63112
H	8.63874	-1.96788	-1.43131
H	6.93425	-1.4875	-1.79458
H	8.30413	-0.612981	-2.56658
N	6.27492	-1.10331	0.930208
C	5.75562	-1.72389	2.12661
H	5.64707	-0.943291	0.175709
H	4.67067	-1.94309	2.01676
H	5.8905	-1.05419	3.00672
H	6.28733	-2.68026	2.33585
