44
  This energy is -0.027 and Call times are: 15583
C	-3.34724	-0.840904	0.448973
C	-2.1238	-0.106705	0.843061
O	-2.16208	0.783266	1.68145
H	-4.21657	-0.433743	1.00965
H	-3.23944	-1.91997	0.687168
H	-3.53261	-0.719485	-0.639137
N	-0.992282	-0.468861	0.23406
C	0.270254	0.181988	0.480954
C	1.11533	0.0663232	-0.773649
O	0.757839	-0.645327	-1.71038
H	-0.984194	-1.16719	-0.475964
H	0.0997841	1.23645	0.65897
C	0.995939	-0.459906	1.6837
H	1.18047	-1.53934	1.49715
H	1.96314	0.0415049	1.89258
H	0.356002	-0.370796	2.58862
N	2.26013	0.775483	-0.824004
C	3.12589	0.73225	-1.97933
H	2.53054	1.34891	-0.0577539
H	4.01569	1.38242	-1.82852
H	2.58559	1.08297	-2.88837
H	3.47895	-0.307547	-2.16723
C	4.81014	1.24455	-2.60784
C	5.89334	1.38265	-1.60845
O	6.67646	2.3215	-1.64941
H	4.87292	2.0825	-3.33567
H	3.82017	1.27761	-2.10623
H	4.91492	0.284257	-3.1555
N	5.96354	0.431602	-0.674121
C	6.9887	0.406676	0.339279
C	7.22568	-1.03808	0.736905
O	6.48175	-1.93152	0.336845
H	5.34421	-0.348315	-0.678185
H	7.91415	0.781938	-0.0794738
C	6.57089	1.24474	1.56742
H	5.6271	0.853671	2.00372
H	7.35793	1.24477	2.34914
H	6.39508	2.29625	1.25158
N	8.28051	-1.3026	1.53275
C	8.58771	-2.64825	1.95823
H	8.87343	-0.566852	1.84289
H	9.49141	-2.65903	2.60666
H	8.77985	-3.30418	1.07839
H	7.73803	-3.08226	2.53339
