44
  This energy is -2.3304 and Call times are: 16060
C	-2.54199	-0.469251	2.3304
C	-1.78307	0.377205	1.3824
O	-2.18846	1.48502	1.05865
H	-3.47082	0.060972	2.63376
H	-1.93182	-0.671766	3.23562
H	-2.81819	-1.43072	1.84834
N	-0.646089	-0.136515	0.907288
C	0.178645	0.549974	-0.055576
C	0.914607	-0.492197	-0.876425
O	0.882257	-1.68016	-0.561127
H	-0.350067	-1.05631	1.14855
H	-0.454049	1.10768	-0.734759
C	1.18049	1.49163	0.647862
H	1.8368	0.918427	1.33686
H	1.812	2.03646	-0.0834869
H	0.62015	2.24076	1.24884
N	1.59291	-0.0689705	-1.96123
C	2.3185	-0.989198	-2.80556
H	1.60398	0.895757	-2.20258
H	2.80936	-0.449196	-3.64501
H	1.63115	-1.75372	-3.2349
H	3.10515	-1.52071	-2.22263
C	6.78029	-1.10297	-3.08271
C	6.87664	-0.24171	-1.88267
O	7.88601	0.408991	-1.64992
H	7.73342	-1.04737	-3.65219
H	5.95096	-0.758312	-3.73554
H	6.60133	-2.15731	-2.78368
N	5.81005	-0.220864	-1.07997
C	5.7706	0.535575	0.146733
C	4.82547	-0.165276	1.1044
O	4.1245	-1.10149	0.725123
H	5.01145	-0.78764	-1.26124
H	6.75331	0.530079	0.601561
C	5.30223	1.98413	-0.113184
H	4.28969	1.99064	-0.570106
H	5.28093	2.58079	0.821732
H	6.00383	2.47499	-0.822521
N	4.79104	0.269815	2.37936
C	3.92654	-0.339617	3.36293
H	5.36867	1.02604	2.66838
H	4.04268	0.158075	4.35088
H	4.16981	-1.42009	3.48407
H	2.85965	-0.25865	3.05257
