44
  This energy is -0.0062 and Call times are: 10741
C	1.52848	3.03204	0.763641
C	1.42779	1.5593	0.873307
O	2.32609	0.899181	1.37701
H	2.50466	3.36534	1.1782
H	0.710326	3.51539	1.33788
H	1.4656	3.3417	-0.300901
N	0.312975	1.0033	0.393285
C	0.0895201	-0.420995	0.390159
C	-0.823475	-0.753963	-0.774799
O	-1.36962	0.137603	-1.42176
H	-0.39128	1.54979	-0.0508404
H	1.02993	-0.929753	0.218626
C	-0.541333	-0.883381	1.72187
H	-1.51122	-0.369568	1.8932
H	-0.705549	-1.98034	1.73723
H	0.140082	-0.622453	2.56088
N	-1.00413	-2.05508	-1.07561
C	-1.85096	-2.46722	-2.17069
H	-0.550444	-2.76198	-0.543129
H	-1.87029	-3.57599	-2.25713
H	-1.48016	-2.04703	-3.13362
H	-2.8946	-2.10907	-2.01685
C	7.08654	2.07156	1.53687
C	6.72259	0.845378	0.791771
O	7.58041	0.127656	0.296355
H	8.19172	2.19146	1.52938
H	6.74027	1.99691	2.58914
H	6.62531	2.96117	1.05838
N	5.41874	0.575953	0.693042
C	4.9087	-0.557574	-0.0373939
C	3.52343	-0.207326	-0.547207
O	2.95819	0.820667	-0.179178
H	4.73064	1.19151	1.0665
H	5.53511	-0.736354	-0.902422
C	4.85388	-1.81309	0.860341
H	4.20293	-1.63373	1.74247
H	4.47583	-2.69611	0.305488
H	5.87692	-2.04606	1.22836
N	2.94487	-1.05643	-1.41916
C	1.63067	-0.803032	-1.96214
H	3.41967	-1.88108	-1.70829
H	1.33019	-1.61533	-2.66008
H	1.61527	0.161503	-2.51956
H	0.873543	-0.742862	-1.1471
