44
  This energy is -0.4072 and Call times are: 12661
C	-0.887932	0.270656	-3.35425
C	-1.16129	0.471978	-1.91346
O	-2.09558	1.16631	-1.53741
H	-1.62865	0.844683	-3.95234
H	-0.973477	-0.805601	-3.61328
H	0.132315	0.630834	-3.60417
N	-0.335629	-0.140333	-1.06156
C	-0.448416	-0.00428761	0.369294
C	0.932595	-0.181963	0.971618
O	1.87671	-0.561255	0.281324
H	0.44495	-0.668886	-1.3828
H	-0.777688	0.999357	0.607852
C	-1.42949	-1.0478	0.947056
H	-1.08655	-2.07786	0.71166
H	-1.53556	-0.944344	2.04641
H	-2.43127	-0.90416	0.486451
N	1.08447	0.0983289	2.28097
C	2.36296	-0.03613	2.93942
H	0.309621	0.407931	2.8221
H	2.28312	0.241041	4.01368
H	3.122	0.625305	2.4623
H	2.73013	-1.08594	2.87432
C	13.4436	-1.31644	1.51441
C	12.3145	-0.360279	1.47088
O	12.0325	0.33085	2.44003
H	13.9141	-1.28358	2.5211
H	14.2047	-1.0448	0.752996
H	13.0796	-2.34758	1.32138
N	11.6308	-0.301087	0.325692
C	10.4807	0.549486	0.145936
C	9.57183	-0.0952724	-0.883571
O	9.9438	-1.07522	-1.52626
H	11.8468	-0.899438	-0.440591
H	9.92772	0.603739	1.07542
C	10.9051	1.96112	-0.314907
H	11.4633	1.907	-1.27384
H	10.0293	2.62966	-0.443496
H	11.5758	2.41057	0.449621
N	8.34711	0.439029	-1.05843
C	7.41172	-0.110635	-2.0119
H	8.06265	1.22947	-0.526115
H	6.46104	0.466795	-2.00787
H	7.1782	-1.1719	-1.76601
H	7.83632	-0.0801849	-3.04143
