44
  This energy is 0 and Call times are: 17743
C	2.03763	2.69518	0.834721
C	0.760967	2.12974	0.343248
O	-0.23158	2.83174	0.207397
H	1.90191	3.77775	1.04799
H	2.82976	2.57693	0.0657615
H	2.34949	2.18131	1.76842
N	0.758752	0.824319	0.0635123
C	-0.419452	0.123293	-0.382535
C	-0.306928	-1.32236	0.0635273
O	0.738131	-1.75249	0.547843
H	1.56316	0.257841	0.218108
H	-1.29089	0.543952	0.10355
C	-0.562774	0.206584	-1.91803
H	0.326242	-0.234383	-2.41727
H	-1.4738	-0.317705	-2.27256
H	-0.635441	1.27353	-2.22251
N	-1.39185	-2.10818	-0.0829775
C	-1.38002	-3.49561	0.318387
H	-2.22971	-1.74099	-0.473136
H	-2.36516	-3.97147	0.117668
H	-1.16163	-3.58772	1.40701
H	-0.597832	-4.05953	-0.239563
C	91.294	-3.30727	-1.00494
C	90.9055	-1.8792	-1.03445
O	90.112	-1.45606	-1.86376
H	90.7752	-3.8461	-1.82733
H	91.0017	-3.76344	-0.0358146
H	92.3909	-3.40841	-1.14492
N	91.4683	-1.09196	-0.114701
C	91.2218	0.326809	-0.044771
C	92.4482	0.991052	0.552252
O	93.3582	0.317888	1.03228
H	92.1435	-1.44303	0.527679
H	91.0989	0.717858	-1.04707
C	89.9721	0.628131	0.81114
H	90.1019	0.236419	1.84252
H	89.7637	1.71652	0.861231
H	89.0886	0.125765	0.360166
N	92.5042	2.33727	0.528196
C	93.6344	3.05652	1.06816
H	91.7599	2.86453	0.131818
H	93.493	4.15391	0.954185
H	94.5723	2.76734	0.540919
H	93.7634	2.83003	2.15131
