44
  This energy is -1.0342 and Call times are: 11139
C	-2.23315	1.36518	2.29391
C	-1.78443	0.26935	1.40568
O	-2.29755	-0.839782	1.45993
H	-3.039	0.990124	2.96161
H	-2.62979	2.20869	1.69066
H	-1.38702	1.72292	2.91775
N	-0.797516	0.561161	0.555254
C	-0.225676	-0.412533	-0.341117
C	1.21622	-0.0222317	-0.605962
O	1.65654	1.05961	-0.221974
H	-0.36216	1.45688	0.551229
H	-0.213935	-1.3808	0.143604
C	-1.02043	-0.478596	-1.6637
H	-1.02387	0.511915	-2.16661
H	-0.598221	-1.23468	-2.35695
H	-2.07423	-0.758	-1.44507
N	1.99174	-0.904759	-1.26607
C	3.37774	-0.622386	-1.5584
H	1.6186	-1.77675	-1.56518
H	3.84469	-1.47021	-2.10647
H	3.95122	-0.454619	-0.618055
H	3.46835	0.293547	-2.18609
C	4.12148	-0.145444	2.15565
C	5.43053	0.411158	1.74607
O	5.88492	1.41577	2.27587
H	3.6829	0.494932	2.95152
H	4.2504	-1.17433	2.55255
H	3.42727	-0.167969	1.28926
N	6.07467	-0.240177	0.774865
C	7.33749	0.205022	0.240407
C	7.43091	-0.258732	-1.20104
O	6.59965	-1.03506	-1.66798
H	5.67313	-1.03285	0.325102
H	7.36055	1.28763	0.23309
C	8.51509	-0.356179	1.06717
H	8.49797	-1.46692	1.06626
H	9.49259	-0.00924345	0.673908
H	8.42192	-0.0107206	2.11994
N	8.44812	0.216736	-1.94617
C	8.61457	-0.164566	-3.32931
H	9.10844	0.847255	-1.55182
H	9.50773	0.331387	-3.76923
H	7.72123	0.127621	-3.92753
H	8.74524	-1.26721	-3.42007
