44
  This energy is -3.3463 and Call times are: 11875
C	-1.55076	-0.476638	-3.07907
C	-1.33908	-0.83163	-1.65769
O	-2.08651	-1.60999	-1.08157
H	-2.45353	-1.00283	-3.45854
H	-0.673389	-0.785397	-3.6854
H	-1.70356	0.618481	-3.18133
N	-0.298248	-0.256337	-1.05099
C	0.0101648	-0.470182	0.341028
C	0.713492	0.767603	0.865217
O	1.07461	1.65879	0.0989967
H	0.276888	0.406643	-1.52167
H	-0.911791	-0.57785	0.898735
C	0.902116	-1.71778	0.523135
H	1.85263	-1.60334	-0.0402992
H	1.13517	-1.90112	1.59206
H	0.370826	-2.60997	0.125539
N	0.917635	0.855082	2.19439
C	1.57383	1.99836	2.78473
H	0.614611	0.125695	2.79874
H	1.64684	1.88326	3.88865
H	1.00722	2.93249	2.56648
H	2.60332	2.11542	2.37536
C	8.87687	-2.08083	1.80536
C	7.55363	-1.75514	1.22733
O	6.65722	-2.58669	1.18987
H	8.87959	-3.14004	2.14288
H	9.08558	-1.42538	2.6769
H	9.67183	-1.94486	1.04207
N	7.40152	-0.516155	0.753882
C	6.18605	-0.0648661	0.123393
C	6.54532	1.02039	-0.873965
O	7.68248	1.48604	-0.915614
H	8.15351	0.136821	0.754287
H	5.74777	-0.883151	-0.434228
C	5.18729	0.472325	1.1718
H	5.6326	1.31869	1.73696
H	4.2418	0.810091	0.700129
H	4.94483	-0.336103	1.89567
N	5.57872	1.44458	-1.71168
C	5.82941	2.46971	-2.6978
H	4.66577	1.05285	-1.66553
H	4.91104	2.67941	-3.28929
H	6.63342	2.15093	-3.40011
H	6.15449	3.41575	-2.20741
