44
  This energy is -1.9574 and Call times are: 13389
C	2.69599	-1.7387	1.34953
C	2.07117	-0.930271	0.278466
O	2.74038	-0.457292	-0.629748
H	3.79216	-1.79689	1.17374
H	2.27658	-2.76672	1.34717
H	2.5152	-1.26821	2.339
N	0.751198	-0.749634	0.364678
C	0.00904759	0.0488856	-0.578794
C	-1.20096	0.621576	0.134967
O	-1.49907	0.248136	1.26784
H	0.22635	-1.10661	1.13212
H	0.619993	0.883811	-0.8986
C	-0.429467	-0.797957	-1.79362
H	-1.06497	-1.6486	-1.46715
H	-0.989946	-0.191106	-2.53397
H	0.471417	-1.21338	-2.29579
N	-1.92563	1.55471	-0.513223
C	-3.0905	2.16009	0.0890819
H	-1.6663	1.84701	-1.42776
H	-3.5487	2.90283	-0.600571
H	-2.81734	2.68189	1.0348
H	-3.85525	1.38663	0.33002
C	6.14087	-2.04837	-1.05328
C	7.52857	-1.54506	-1.16344
O	8.34799	-2.10002	-1.88246
H	6.02796	-2.95564	-1.68571
H	5.42455	-1.27533	-1.40263
H	5.91274	-2.31419	0.000457961
N	7.82736	-0.464752	-0.438154
C	9.14695	0.115202	-0.408209
C	9.33614	0.79107	0.936775
O	8.3924	0.922609	1.7138
H	7.161	-0.0485061	0.17386
H	9.88549	-0.673519	-0.479597
C	9.32856	1.13268	-1.55581
H	8.57783	1.94768	-1.47698
H	10.3454	1.57603	-1.55189
H	9.17785	0.618028	-2.52985
N	10.5716	1.23053	1.24744
C	10.848	1.88099	2.50708
H	11.3234	1.11133	0.607406
H	11.9205	2.16819	2.57439
H	10.6126	1.20296	3.35923
H	10.2306	2.80172	2.61778
