44
  This energy is -1.3846 and Call times are: 12021
C	3.08429	-0.791367	1.40484
C	1.95449	0.138335	1.18047
O	1.84279	1.16765	1.83197
H	3.72722	-0.397673	2.22186
H	3.69328	-0.883569	0.481056
H	2.70364	-1.79253	1.69785
N	1.07593	-0.211851	0.2382
C	-0.0976717	0.56905	-0.0641554
C	-1.16872	-0.369725	-0.586756
O	-0.906546	-1.54291	-0.844853
H	1.15802	-1.073	-0.255317
H	-0.475618	1.01374	0.848006
C	0.220702	1.66192	-1.10795
H	0.598516	1.20558	-2.04766
H	-0.671743	2.27895	-1.3389
H	1.01229	2.33234	-0.707591
N	-2.41114	0.126823	-0.7476
C	-3.4958	-0.693363	-1.23441
H	-2.60479	1.07761	-0.529478
H	-4.43704	-0.103993	-1.297
H	-3.66899	-1.55924	-0.555054
H	-3.26303	-1.09142	-2.24857
C	7.74694	1.33836	1.74587
C	6.66205	0.344055	1.58607
O	6.60403	-0.649352	2.29754
H	8.43294	1.00655	2.55529
H	7.32239	2.32763	2.01763
H	8.32361	1.43064	0.80141
N	5.76469	0.593411	0.629539
C	4.67698	-0.302991	0.326382
C	4.32153	-0.136787	-1.13909
O	4.814	0.769957	-1.80766
H	5.84842	1.38529	0.0314017
H	5.00731	-1.32499	0.464279
C	3.45161	-0.00493564	1.21794
H	3.10585	1.04021	1.06903
H	2.61207	-0.697592	1.00368
H	3.73691	-0.124926	2.28591
N	3.45803	-1.02045	-1.67716
C	3.06536	-0.944376	-3.06504
H	3.07324	-1.7498	-1.12123
H	2.35004	-1.75819	-3.31653
H	3.95377	-1.04064	-3.73044
H	2.57576	0.032532	-3.28203
