44
  This energy is -0.003 and Call times are: 15752
C	-0.523853	-0.619501	-3.38445
C	-0.69446	0.208746	-2.16952
O	-1.14488	1.34416	-2.23559
H	-0.843262	-0.0355637	-4.27488
H	-1.14658	-1.53596	-3.3134
H	0.542182	-0.905706	-3.50589
N	-0.329443	-0.350899	-1.01369
C	-0.396225	0.345845	0.246722
C	0.675759	-0.221415	1.15811
O	1.30655	-1.22722	0.838467
H	0.0737512	-1.26097	-0.980838
H	-0.165248	1.39202	0.0892554
C	-1.7917	0.190181	0.889877
H	-2.02475	-0.882355	1.06132
H	-1.86017	0.733796	1.85441
H	-2.561	0.604606	0.202287
N	0.913429	0.420497	2.31892
C	1.9185	-0.0429586	3.24694
H	0.395571	1.23513	2.55822
H	1.96308	0.617712	4.14067
H	2.9235	-0.0503663	2.76612
H	1.69111	-1.07902	3.58754
C	8.59305	1.91029	-0.813912
C	7.55572	0.909328	-1.15034
O	7.3944	0.527198	-2.30115
H	9.12151	2.21782	-1.74235
H	9.33089	1.47432	-0.108024
H	8.12546	2.80589	-0.353126
N	6.81579	0.457316	-0.135164
C	5.74014	-0.486159	-0.312314
C	4.71846	-0.249955	0.78402
O	4.96149	0.512071	1.71781
H	6.93166	0.808278	0.789637
H	5.24872	-0.294205	-1.25798
C	6.26515	-1.93765	-0.259617
H	6.76009	-2.1383	0.714452
H	5.44843	-2.67338	-0.40861
H	7.01698	-2.08545	-1.06537
N	3.5399	-0.896663	0.69029
C	2.50491	-0.729584	1.68379
H	3.36015	-1.50601	-0.0748661
H	1.613	-1.34372	1.42965
H	2.18951	0.337106	1.74686
H	2.87077	-1.04141	2.6888
