44
  This energy is -2.4297 and Call times are: 7064
C	2.92867	-1.24516	1.40896
C	2.15069	-0.735512	0.257378
O	2.69736	-0.448992	-0.798778
H	4.00543	-1.28611	1.13552
H	2.58746	-2.26653	1.67937
H	2.80517	-0.570992	2.28266
N	0.834471	-0.607349	0.440482
C	-0.0476077	-0.0841707	-0.57282
C	-1.22596	0.574052	0.119836
O	-1.39083	0.454486	1.33237
H	0.409754	-0.805884	1.31916
H	0.468488	0.685643	-1.13288
C	-0.532119	-1.20721	-1.51583
H	-1.07084	-1.99203	-0.943224
H	-1.2011	-0.814762	-2.3089
H	0.347071	-1.67994	-2.00562
N	-2.07353	1.29642	-0.639006
C	-3.21966	1.96328	-0.0664185
H	-1.92122	1.38498	-1.6178
H	-3.79242	2.50462	-0.851355
H	-2.90013	2.70044	0.705445
H	-3.90024	1.22739	0.419816
C	5.80655	-0.5826	-2.40891
C	7.194	-0.696703	-1.90583
O	8.0074	-1.4287	-2.45261
H	5.67789	-1.25252	-3.2867
H	5.59718	0.462297	-2.72053
H	5.08696	-0.883654	-1.61858
N	7.49816	0.0363215	-0.832256
C	8.79449	-0.00169964	-0.202478
C	8.61522	0.321804	1.26884
O	7.53383	0.718009	1.69934
H	6.81386	0.596098	-0.373729
H	9.19295	-1.00662	-0.265572
C	9.75938	1.00605	-0.864807
H	9.35606	2.03849	-0.791043
H	10.7651	0.976454	-0.397762
H	9.86936	0.754952	-1.94239
N	9.67728	0.150963	2.08054
C	9.59923	0.428035	3.49592
H	10.5428	-0.174401	1.71438
H	10.5747	0.225773	3.99062
H	8.82282	-0.20875	3.97858
H	9.3303	1.49448	3.67343
