44
  This energy is -0.5454 and Call times are: 16117
C	2.73948	1.39229	-1.63384
C	1.28353	1.16613	-1.49177
O	0.476097	1.80806	-2.14933
H	2.91483	2.2011	-2.37611
H	3.23801	0.465485	-1.98773
H	3.17616	1.69777	-0.659626
N	0.910902	0.233203	-0.612466
C	-0.470814	-0.0691754	-0.333201
C	-0.565137	-0.57533	1.09385
O	0.449503	-0.82345	1.74243
H	1.57825	-0.252242	-0.054921
H	-1.0546	0.840982	-0.391885
C	-1.01457	-1.12588	-1.31958
H	-0.422592	-2.06347	-1.25223
H	-2.08166	-1.35708	-1.12364
H	-0.92836	-0.737443	-2.35786
N	-1.79514	-0.732921	1.62138
C	-1.98292	-1.20438	2.97365
H	-2.60413	-0.523009	1.08236
H	-3.06543	-1.26663	3.22167
H	-1.49577	-0.515306	3.70107
H	-1.53463	-2.21604	3.10302
C	2.23492	-1.3807	2.97473
C	2.6827	-1.50208	1.56906
O	2.915	-2.59489	1.07084
H	2.18177	-2.39262	3.43194
H	1.22835	-0.914016	3.01678
H	2.95331	-0.762304	3.55315
N	2.81784	-0.361381	0.888666
C	3.28612	-0.315778	-0.47412
C	3.9773	1.01697	-0.692395
O	3.92054	1.90265	0.15851
H	2.66442	0.522986	1.32019
H	4.02675	-1.09152	-0.623493
C	2.11477	-0.487127	-1.466
H	1.35976	0.314597	-1.32024
H	2.46432	-0.467663	-2.51859
H	1.61884	-1.4653	-1.28279
N	4.65777	1.18738	-1.84301
C	5.35139	2.42006	-2.13553
H	4.69567	0.457608	-2.51761
H	5.85023	2.36461	-3.12816
H	6.1282	2.62628	-1.36396
H	4.64052	3.27776	-2.14756
