44
  This energy is -2.8043 and Call times are: 10997
C	2.6928	1.87697	-1.15692
C	1.85894	1.33159	-0.0622164
O	2.22105	1.40112	1.10417
H	3.62823	2.2999	-0.730322
H	2.14511	2.68197	-1.69055
H	2.95702	1.07162	-1.87434
N	0.704641	0.765001	-0.4213
C	-0.19266	0.152437	0.526421
C	-0.958163	-0.945176	-0.188287
O	-0.882442	-1.07378	-1.40871
H	0.442722	0.679457	-1.37835
H	0.38473	-0.316755	1.31326
C	-1.16658	1.19517	1.11755
H	-1.76661	1.66926	0.311798
H	-1.85366	0.738458	1.85907
H	-0.584381	1.99274	1.62871
N	-1.71184	-1.77255	0.562345
C	-2.47088	-2.84938	-0.0296614
H	-1.75723	-1.65519	1.54887
H	-3.02435	-3.41604	0.751232
H	-1.79699	-3.55706	-0.564765
H	-3.20849	-2.45275	-0.764344
C	11.2998	-1.06042	0.865627
C	10.1586	-0.994623	-0.0747976
O	10.2691	-1.37574	-1.23193
H	12.1879	-1.47045	0.337351
H	11.0529	-1.72339	1.72132
H	11.5435	-0.0450024	1.24331
N	9.01791	-0.498522	0.41007
C	7.83395	-0.331985	-0.395568
C	7.03389	0.824865	0.172916
O	7.34149	1.33494	1.24851
H	8.95512	-0.154423	1.34254
H	8.12283	-0.0600763	-1.40316
C	6.98685	-1.62333	-0.404887
H	6.68137	-1.89691	0.62753
H	6.07936	-1.51235	-1.03311
H	7.59475	-2.45805	-0.817257
N	5.98607	1.27347	-0.546
C	5.17012	2.37345	-0.0872595
H	5.75523	0.850564	-1.41602
H	4.35974	2.593	-0.816868
H	5.78603	3.29314	0.0396753
H	4.70231	2.13298	0.894817
