44
  This energy is -0.8314 and Call times are: 11499
C	3.31577	-0.397048	0.980146
C	1.86537	-0.361377	1.27376
O	1.42784	-0.744027	2.35012
H	3.85701	-0.821255	1.85364
H	3.69265	0.629447	0.787758
H	3.5109	-1.0347	0.0922185
N	1.07495	0.105354	0.304343
C	-0.360544	0.160917	0.426131
C	-0.958138	0.0391828	-0.962976
O	-0.243048	0.0825465	-1.96222
H	1.44185	0.374813	-0.581456
H	-0.703539	-0.690542	1.00059
C	-0.80691	1.48003	1.09392
H	-0.464336	2.35363	0.499365
H	-1.90945	1.52878	1.20597
H	-0.351503	1.55158	2.10577
N	-2.29228	-0.125637	-1.05747
C	-2.94904	-0.256091	-2.33724
H	-2.85373	-0.16239	-0.23741
H	-4.04608	-0.383577	-2.2051
H	-2.55772	-1.13996	-2.89126
H	-2.77387	0.648844	-2.96298
C	2.40049	-0.831231	-3.22844
C	2.35668	0.0437308	-2.03526
O	1.80991	1.1374	-2.07203
H	1.8976	-0.319647	-4.07769
H	1.87409	-1.78673	-3.02186
H	3.45377	-1.04292	-3.50926
N	2.94441	-0.426514	-0.932608
C	3.02073	0.327593	0.293789
C	4.26613	-0.110096	1.04144
O	4.91882	-1.08117	0.66366
H	3.42098	-1.301	-0.929759
H	3.13735	1.37854	0.0602485
C	1.76194	0.101652	1.15961
H	1.64766	-0.974983	1.40829
H	1.80241	0.687826	2.10051
H	0.862302	0.421326	0.589708
N	4.6308	0.606991	2.12256
C	5.80446	0.268541	2.89336
H	4.09222	1.39197	2.41035
H	5.93538	0.976067	3.7416
H	6.71804	0.311329	2.2571
H	5.71949	-0.762588	3.30651
