44
  This energy is 0 and Call times are: 17435
C	-2.561	1.9172	-1.3705
C	-1.95849	1.15428	-0.254229
O	-2.42873	1.20539	0.873899
H	-3.42941	2.49863	-0.991439
H	-2.91157	1.2232	-2.16309
H	-1.81655	2.62116	-1.79866
N	-0.883964	0.41912	-0.549715
C	-0.163373	-0.343243	0.439281
C	1.28341	-0.446883	-0.00526335
O	1.62677	-0.0714683	-1.12459
H	-0.488499	0.419882	-1.46376
H	-0.17406	0.192124	1.3805
C	-0.779758	-1.74914	0.608882
H	-0.759431	-2.30271	-0.354018
H	-0.242197	-2.34108	1.37775
H	-1.84056	-1.64888	0.926691
N	2.17203	-0.954786	0.871332
C	3.57132	-1.08666	0.538483
H	1.87589	-1.24936	1.77388
H	4.13845	-1.5241	1.3895
H	4.01298	-0.0927309	0.296988
H	3.70378	-1.74794	-0.34825
C	70.9244	-3.31107	-1.06481
C	70.5599	-1.88303	-1.2028
O	70.0187	-1.46293	-2.21623
H	70.6447	-3.85298	-1.99429
H	70.3821	-3.76338	-0.20805
H	72.0185	-3.41303	-0.904835
N	70.8562	-1.09235	-0.168656
C	70.6018	0.326751	-0.172696
C	71.6237	0.993015	0.729146
O	72.3706	0.321504	1.43831
H	71.3337	-1.44107	0.632697
H	70.753	0.713913	-1.17264
C	69.1686	0.631725	0.31521
H	69.0163	0.244012	1.34504
H	68.9558	1.72035	0.303501
H	68.4379	0.127822	-0.354515
N	71.6859	2.33911	0.716045
C	72.6306	3.06018	1.5369
H	71.076	2.86501	0.132481
H	72.5265	4.15716	1.38512
H	73.6752	2.76871	1.28185
H	72.4638	2.8379	2.61575
