44
  This energy is -7.1472 and Call times are: 9005
C	0.317883	-2.51388	2.3858
C	-0.155235	-2.01279	1.07576
O	-0.59697	-2.77615	0.228081
H	0.211787	-3.62009	2.416
H	-0.286936	-2.07234	3.20555
H	1.38679	-2.25125	2.53262
N	-0.0692306	-0.695246	0.878111
C	-0.450171	-0.0650599	-0.361368
C	0.380879	1.19328	-0.527158
O	1.08818	1.60626	0.389842
H	0.330591	-0.0916622	1.56199
H	-0.207047	-0.723197	-1.18622
C	-1.95641	0.276199	-0.36664
H	-2.20443	0.959781	0.473145
H	-2.26496	0.749392	-1.32132
H	-2.54486	-0.658156	-0.236041
N	0.320357	1.83088	-1.71283
C	1.08059	3.03295	-1.96434
H	-0.254545	1.47913	-2.44415
H	0.896667	3.40595	-2.99597
H	2.17177	2.83844	-1.85134
H	0.796661	3.83522	-1.24539
C	2.80189	-2.97486	-0.739386
C	3.47205	-2.0573	0.20936
O	3.42014	-2.24666	1.41678
H	2.28148	-3.77564	-0.170365
H	3.55031	-3.44154	-1.41379
H	2.05421	-2.42021	-1.34471
N	4.12549	-1.02352	-0.326089
C	4.78981	-0.0222955	0.470645
C	4.7887	1.27947	-0.308439
O	4.42605	1.31025	-1.48285
H	4.12436	-0.859862	-1.30847
H	4.2241	0.144792	1.37876
C	6.23511	-0.452391	0.804341
H	6.81893	-0.613726	-0.126884
H	6.75271	0.304029	1.42919
H	6.21204	-1.41096	1.36733
N	5.18963	2.39359	0.334993
C	5.21662	3.67866	-0.323833
H	5.47555	2.3494	1.2865
H	5.57497	4.46956	0.37136
H	4.19865	3.95934	-0.679152
H	5.89568	3.65357	-1.20666
