44
  This energy is -0.2558 and Call times are: 15527
C	-0.412864	-1.84448	-2.92235
C	-0.857568	-1.41876	-1.57619
O	-1.97944	-1.6839	-1.16691
H	-1.24246	-2.38295	-3.42999
H	0.460044	-2.52558	-2.83941
H	-0.133774	-0.958675	-3.53108
N	0.0277955	-0.735181	-0.847335
C	-0.273981	-0.217303	0.463883
C	0.574601	1.01964	0.690695
O	1.46723	1.32431	-0.0980381
H	0.922777	-0.491666	-1.21007
H	-1.31105	0.0927341	0.49553
C	0.00854866	-1.27499	1.55325
H	1.0748	-1.58565	1.5281
H	-0.233025	-0.892985	2.56628
H	-0.617204	-2.17417	1.36281
N	0.307916	1.77016	1.77772
C	1.05955	2.96785	2.07228
H	-0.421024	1.50967	2.40211
H	0.689798	3.44429	3.0069
H	0.965188	3.7049	1.24214
H	2.14038	2.73145	2.20285
C	8.09168	2.55631	-1.89596
C	9.25566	1.77167	-1.42624
O	10.353	1.88942	-1.95394
H	8.39962	3.19223	-2.75423
H	7.71667	3.21004	-1.08064
H	7.27935	1.87522	-2.2266
N	9.0368	0.937535	-0.407078
C	10.0606	0.0770622	0.131443
C	9.38817	-1.1546	0.708023
O	8.16456	-1.21313	0.813068
H	8.12865	0.822606	-0.0147648
H	10.7073	-0.254487	-0.671371
C	10.8785	0.806795	1.21943
H	10.2172	1.13788	2.04829
H	11.679	0.159221	1.63217
H	11.355	1.70883	0.777141
N	10.1782	-2.17744	1.08964
C	9.62727	-3.39196	1.64422
H	11.1659	-2.11307	0.993031
H	10.4368	-4.11224	1.89532
H	8.9383	-3.87883	0.916512
H	9.05111	-3.17415	2.57252
