44
  This energy is -1.2494 and Call times are: 3576
C	0.869917	-2.17459	-2.57431
C	0.0518615	-1.07258	-2.01979
O	-0.676527	-0.401675	-2.73795
H	0.706924	-2.23647	-3.67225
H	0.574955	-3.14012	-2.11224
H	1.94707	-1.9863	-2.38097
N	0.15816	-0.85738	-0.706488
C	-0.542403	0.205819	-0.0301887
C	0.277461	0.619209	1.17749
O	1.25667	-0.0363916	1.52828
H	0.786271	-1.38532	-0.142026
H	-0.606533	1.06513	-0.686007
C	-1.95258	-0.251032	0.403324
H	-1.88688	-1.12605	1.08455
H	-2.50734	0.563218	0.912993
H	-2.53187	-0.556338	-0.495321
N	-0.101821	1.72949	1.84039
C	0.620905	2.20272	2.99794
H	-0.894475	2.24901	1.53895
H	0.154481	3.12839	3.40143
H	1.67932	2.42978	2.73438
H	0.623168	1.43175	3.80215
C	5.9295	1.60991	3.08288
C	5.92557	1.62732	1.60274
O	5.7993	2.67402	0.982338
H	5.78783	2.64504	3.46274
H	6.89836	1.21873	3.45843
H	5.1024	0.972295	3.46027
N	6.064	0.446697	0.994989
C	6.03624	0.298492	-0.438824
C	5.51511	-1.08941	-0.760864
O	5.35615	-1.92429	0.127631
H	6.12467	-0.401369	1.5136
H	5.33684	1.01098	-0.85812
C	7.44346	0.501903	-1.04182
H	8.159	-0.23563	-0.619816
H	7.43274	0.403993	-2.14673
H	7.80813	1.52093	-0.786997
N	5.22744	-1.36622	-2.04797
C	4.72137	-2.65841	-2.44837
H	5.35877	-0.676338	-2.75216
H	4.54649	-2.68925	-3.54642
H	3.75832	-2.87974	-1.93377
H	5.44594	-3.46289	-2.18579
