44
  This energy is -5.6998 and Call times are: 4972
C	-0.65759	3.11054	1.41591
C	-0.0861842	1.7463	1.47502
O	0.658822	1.41097	2.38548
H	-0.283459	3.70315	2.27889
H	-1.76578	3.06377	1.46552
H	-0.350812	3.61347	0.47462
N	-0.427246	0.916697	0.486175
C	0.0827903	-0.42792	0.384063
C	0.108254	-0.813995	-1.08286
O	-0.416869	-0.096556	-1.93212
H	-1.00191	1.21693	-0.269797
H	1.10479	-0.45041	0.741321
C	-0.793776	-1.413	1.1881
H	-1.84003	-1.39806	0.815045
H	-0.403437	-2.44965	1.12871
H	-0.80435	-1.1066	2.25691
N	0.731698	-1.96109	-1.41679
C	0.811115	-2.40664	-2.78842
H	1.15427	-2.52618	-0.71595
H	1.36279	-3.37002	-2.85765
H	1.34069	-1.65364	-3.41596
H	-0.208079	-2.55469	-3.21323
C	4.38006	2.43903	2.34341
C	5.13975	1.96876	1.16321
O	5.78713	2.74664	0.476033
H	4.50048	3.53969	2.44299
H	4.76277	1.95086	3.26426
H	3.30134	2.20505	2.22224
N	5.07396	0.662126	0.897184
C	5.72449	0.0633498	-0.2416
C	4.92893	-1.16196	-0.650593
O	4.01496	-1.58392	0.0553195
H	4.50976	0.048168	1.44178
H	5.69905	0.756746	-1.07297
C	7.18086	-0.324436	0.0958047
H	7.20694	-1.04392	0.941802
H	7.69689	-0.773923	-0.777234
H	7.742	0.586022	0.399989
N	5.25536	-1.75997	-1.81328
C	4.5502	-2.92833	-2.28642
H	5.99527	-1.40142	-2.37278
H	4.96571	-3.27119	-3.25957
H	3.46802	-2.70382	-2.42702
H	4.63723	-3.76334	-1.55408
