44
  This energy is 0 and Call times are: 17463
C	-3.14414	-0.947108	-1.15329
C	-1.79263	-0.382916	-1.3684
O	-1.36025	-0.187824	-2.49596
H	-3.61849	-1.14991	-2.13805
H	-3.775	-0.226047	-0.592202
H	-3.07562	-1.89847	-0.584698
N	-1.08362	-0.106145	-0.271551
C	0.262913	0.406666	-0.320895
C	0.988413	-0.0481086	0.931456
O	0.378873	-0.593597	1.8494
H	-1.43328	-0.308672	0.638718
H	0.779404	-0.0267589	-1.16825
C	0.263041	1.94808	-0.417163
H	-0.257505	2.39357	0.457259
H	1.29395	2.35425	-0.469804
H	-0.279864	2.25842	-1.33656
N	2.31837	0.160046	0.99404
C	3.09343	-0.2441	2.14388
H	2.79464	0.59929	0.239517
H	4.16665	0.0129591	2.0048
H	3.01436	-1.34381	2.30403
H	2.72689	0.266002	3.06397
C	74.692	-1.62872	2.49973
C	73.5937	-0.744854	2.04859
O	72.7031	-0.400981	2.8135
H	74.5331	-1.89655	3.56691
H	75.6675	-1.10765	2.40135
H	74.7076	-2.55937	1.89415
N	73.6329	-0.353435	0.772799
C	72.6117	0.472078	0.177527
C	72.5485	0.151597	-1.30398
O	73.3975	-0.565504	-1.83
H	74.3419	-0.674823	0.151649
H	71.6504	0.214758	0.60453
C	72.9173	1.97029	0.394873
H	73.8986	2.23711	-0.0522319
H	72.131	2.6161	-0.0469397
H	72.9668	2.18027	1.48565
N	71.5283	0.67286	-2.01349
C	71.3832	0.41801	-3.42776
H	70.8488	1.24746	-1.56937
H	70.4832	0.933395	-3.82994
H	71.2774	-0.674075	-3.62125
H	72.2753	0.782752	-3.98644
