44
  This energy is 0 and Call times are: 17939
C	-1.47939	2.4217	-2.01481
C	-1.25454	1.01202	-1.62315
O	-1.94491	0.110693	-2.07858
H	-2.33496	2.47422	-2.72271
H	-0.574924	2.82932	-2.51334
H	-1.71563	3.03461	-1.11948
N	-0.267335	0.788179	-0.752692
C	0.0432946	-0.524953	-0.244998
C	0.643468	-0.367044	1.13935
O	0.941789	0.743931	1.57346
H	0.259187	1.53657	-0.359565
H	-0.872873	-1.09198	-0.136617
C	1.02748	-1.25983	-1.18125
H	1.97165	-0.683695	-1.28441
H	1.26373	-2.27751	-0.808369
H	0.570805	-1.35705	-2.19039
N	0.827394	-1.48294	1.87213
C	1.38727	-1.42988	3.20251
H	0.576012	-2.37251	1.5053
H	1.45834	-2.44996	3.64023
H	0.752079	-0.804991	3.87133
H	2.40848	-0.985103	3.18173
C	108.389	1.13377	0.0922757
C	107.235	0.432082	0.698014
O	107.364	-0.238748	1.71283
H	109.303	0.921843	0.689475
H	108.21	2.22954	0.0856815
H	108.55	0.779354	-0.947786
N	106.062	0.572463	0.0760808
C	104.859	-0.084347	0.521591
C	103.969	-0.312421	-0.686269
O	104.245	0.188064	-1.77489
H	105.982	1.08833	-0.771993
H	105.111	-1.05721	0.924757
C	104.125	0.767263	1.58084
H	103.857	1.76155	1.16439
H	103.204	0.26587	1.94198
H	104.797	0.92819	2.45192
N	102.878	-1.08618	-0.522318
C	101.977	-1.36329	-1.61627
H	102.674	-1.4857	0.3652
H	101.142	-2.0175	-1.28168
H	102.513	-1.87686	-2.4468
H	101.543	-0.418615	-2.0173
