44
  This energy is 7.99892e-321 and Call times are: 13053
C	2.77409	-1.8956	-0.907637
C	2.0706	-0.601132	-0.764158
O	2.66425	0.460101	-0.89748
H	3.84888	-1.70787	-1.12084
H	2.33761	-2.47746	-1.74649
H	2.69118	-2.48236	0.0314803
N	0.767141	-0.662173	-0.481933
C	-0.041935	0.51228	-0.270712
C	-1.1726	0.144513	0.67157
O	-1.37477	-1.02686	0.985763
H	0.306748	-1.53315	-0.33597
H	0.552933	1.27228	0.220371
C	-0.602732	1.04369	-1.608
H	-1.22174	0.267987	-2.10715
H	-1.21618	1.95604	-1.46026
H	0.241895	1.29892	-2.28462
N	-1.93539	1.14541	1.15363
C	-3.03049	0.891738	2.0606
H	-1.75375	2.0873	0.891093
H	-3.53509	1.84182	2.34333
H	-2.66435	0.399185	2.99044
H	-3.78447	0.221037	1.58856
C	10.1869	1.52368	1.42276
C	9.09526	0.524177	1.44362
O	9.07602	-0.374967	2.27282
H	10.9157	1.28843	2.22858
H	9.7774	2.54131	1.59442
H	10.7117	1.4968	0.444524
N	8.14748	0.661035	0.513362
C	7.04523	-0.258701	0.380377
C	6.61112	-0.269676	-1.07324
O	7.06652	0.545927	-1.87268
H	8.19857	1.37377	-0.180362
H	7.38281	-1.25841	0.623761
C	5.86972	0.153267	1.29345
H	5.51614	1.17471	1.03716
H	5.02002	-0.554995	1.21044
H	6.21231	0.162222	2.35122
N	5.72006	-1.20674	-1.45263
C	5.25299	-1.29751	-2.81637
H	5.36605	-1.86064	-0.7922
H	4.52535	-2.13134	-2.92817
H	6.10419	-1.47956	-3.51178
H	4.75212	-0.351165	-3.12411
