44
  This energy is -3.2173 and Call times are: 945
C	0.381585	-1.96427	2.84758
C	0.93476	-1.14475	1.74598
O	2.10761	-0.79714	1.74297
H	1.17833	-2.15555	3.5989
H	0.0167301	-2.93671	2.45517
H	-0.455948	-1.42723	3.34075
N	0.0862651	-0.810997	0.770767
C	0.466722	0.0184446	-0.345405
C	-0.766524	0.760171	-0.82551
O	-1.88042	0.480373	-0.386574
H	-0.875484	-1.06699	0.807824
H	1.18035	0.761333	-0.0115227
C	1.0651	-0.832865	-1.48666
H	0.32961	-1.58822	-1.8367
H	1.37476	-0.204086	-2.34646
H	1.96145	-1.37276	-1.1106
N	-0.593327	1.736	-1.73863
C	-1.70784	2.49944	-2.24971
H	0.316216	1.95065	-2.07881
H	-1.36124	3.25395	-2.98985
H	-2.23006	3.03355	-1.4231
H	-2.44589	1.83109	-2.74943
C	4.77212	1.99275	2.85231
C	4.34278	1.67637	1.47146
O	3.40564	2.26441	0.949549
H	4.11213	2.78382	3.26999
H	5.81943	2.36139	2.85245
H	4.69868	1.08844	3.49255
N	5.03007	0.72153	0.840359
C	4.70325	0.274196	-0.490668
C	5.13404	-1.17452	-0.621871
O	5.80696	-1.71333	0.254813
H	5.76418	0.223469	1.29299
H	3.62906	0.304649	-0.62407
C	5.40597	1.14648	-1.55394
H	6.50853	1.1072	-1.42407
H	5.15124	0.820687	-2.58326
H	5.08205	2.20338	-1.43404
N	4.74587	-1.84486	-1.72459
C	5.10385	-3.22851	-1.93322
H	4.19822	-1.39301	-2.421
H	4.69094	-3.60058	-2.89672
H	4.70434	-3.86582	-1.11133
H	6.21115	-3.34886	-1.95627
