44
  This energy is 0 and Call times are: 18163
C	2.43482	-0.844091	-2.3392
C	1.44687	0.0992986	-1.769
O	1.40877	1.26859	-2.12637
H	3.07677	-0.306239	-3.07029
H	1.91419	-1.67452	-2.86082
H	3.0771	-1.25871	-1.53381
N	0.613198	-0.396918	-0.851871
C	-0.373559	0.408432	-0.176384
C	-0.621105	-0.196471	1.19269
O	-0.148024	-1.29102	1.4925
H	0.683334	-1.34065	-0.541513
H	0.0228542	1.40427	-0.0221513
C	-1.68646	0.467789	-0.987561
H	-2.09911	-0.55271	-1.13702
H	-2.44962	1.09638	-0.484587
H	-1.48005	0.906277	-1.9883
N	-1.36706	0.511529	2.06351
C	-1.65087	0.0183911	3.39108
H	-1.73778	1.39715	1.80405
H	-2.27818	0.743952	3.95434
H	-0.706762	-0.14417	3.95986
H	-2.19565	-0.952136	3.34173
C	117.24	1.12979	-2.87115
C	118.047	1.36279	-1.65259
O	118.599	2.43661	-1.45434
H	117.261	2.04243	-3.50559
H	116.187	0.907207	-2.59612
H	117.658	0.27976	-3.45053
N	118.137	0.342451	-0.79634
C	118.922	0.40365	0.411491
C	119.386	-1.00163	0.746115
O	118.949	-1.97215	0.130404
H	117.717	-0.538953	-0.991306
H	119.807	1.00118	0.23244
C	118.097	0.993452	1.57624
H	117.194	0.374858	1.76725
H	118.695	1.05866	2.50852
H	117.762	2.01864	1.30623
N	120.294	-1.1424	1.7314
C	120.798	-2.44054	2.11557
H	120.639	-0.344835	2.21535
H	121.535	-2.3472	2.94272
H	121.298	-2.93839	1.2538
H	119.967	-3.09841	2.45913
