44
  This energy is -0.9902 and Call times are: 11904
C	-2.64449	0.211168	-2.25273
C	-1.81613	-0.539059	-1.2821
O	-2.16264	-1.6375	-0.870058
H	-3.56108	-0.37422	-2.48307
H	-2.07748	0.375815	-3.19301
H	-2.94234	1.19145	-1.82445
N	-0.684606	0.0496057	-0.887746
C	0.203355	-0.537565	0.0845272
C	0.925355	0.585603	0.804782
O	0.831793	1.7474	0.413389
H	-0.436374	0.961888	-1.20078
H	-0.379776	-1.07246	0.823765
C	1.21663	-1.48468	-0.594799
H	1.82234	-0.934069	-1.34579
H	1.89714	-1.9538	0.145036
H	0.665973	-2.29399	-1.12219
N	1.6607	0.2634	1.88713
C	2.37829	1.26617	2.63925
H	1.72095	-0.681665	2.19093
H	2.92219	0.803664	3.49218
H	1.67618	2.03048	3.0444
H	3.11982	1.78747	1.99155
C	9.69694	0.597756	-2.11707
C	8.61205	1.06478	-1.22484
O	8.55403	2.22929	-0.854753
H	10.3829	1.4448	-2.33564
H	9.27239	0.223433	-3.07226
H	10.2736	-0.21413	-1.62577
N	7.71469	0.149224	-0.852167
C	6.62698	0.44281	0.0474153
C	6.27153	-0.830722	0.791286
O	6.764	-1.909	0.464961
H	7.79842	-0.803885	-1.12862
H	6.95731	1.16491	0.783668
C	5.40161	0.978713	-0.724937
H	5.05585	0.233936	-1.47314
H	4.56207	1.22158	-0.0417818
H	5.68691	1.90612	-1.26794
N	5.40803	-0.732967	1.82125
C	5.01536	-1.89039	2.59089
H	5.02324	0.148906	2.07287
H	4.30004	-1.60484	3.39339
H	5.90377	-2.36587	3.06623
H	4.52576	-2.64887	1.9381
