44
  This energy is -1.6547 and Call times are: 11307
C	3.41418	0.675335	0.00182427
C	2.153	0.333316	0.697244
O	2.15252	-0.0284477	1.86581
H	4.26885	0.527176	0.697143
H	3.39585	1.73655	-0.324101
H	3.55315	0.0193636	-0.88332
N	1.03203	0.440185	-0.0199493
C	-0.266812	0.101158	0.506016
C	-1.14258	-0.346826	-0.648926
O	-0.764385	-0.220445	-1.81199
H	1.05252	0.696575	-0.982088
H	-0.170157	-0.739017	1.18233
C	-0.901289	1.3089	1.22993
H	-1.01037	2.16767	0.533765
H	-1.89585	1.05646	1.65142
H	-0.23974	1.6246	2.06601
N	-2.33848	-0.89234	-0.351839
C	-3.23696	-1.35254	-1.38486
H	-2.62525	-0.989977	0.595422
H	-4.16752	-1.76883	-0.939903
H	-2.75547	-2.14818	-1.99837
H	-3.51703	-0.514965	-2.06396
C	2.48987	1.56497	0.776372
C	3.51533	0.523318	1.00992
O	3.4979	-0.166981	2.01967
H	1.78876	1.59003	1.63873
H	1.91632	1.33722	-0.146618
H	2.97157	2.56043	0.675825
N	4.44872	0.387031	0.0651357
C	5.53588	-0.553887	0.171453
C	6.71561	-0.00354349	-0.607604
O	6.59026	0.988527	-1.323
H	4.4734	0.984019	-0.731641
H	5.84132	-0.631257	1.20747
C	5.12338	-1.93773	-0.376338
H	4.81998	-1.8607	-1.4422
H	5.94756	-2.67482	-0.287298
H	4.25373	-2.31748	0.203176
N	7.89918	-0.634906	-0.478941
C	9.07854	-0.179804	-1.17763
H	7.98186	-1.43362	0.10782
H	9.95037	-0.829095	-0.941907
H	9.33024	0.865085	-0.884138
H	8.91458	-0.198941	-2.2794
