44
  This energy is -0.0123 and Call times are: 12829
C	-0.0887238	1.79514	2.98032
C	0.160165	1.69803	1.52437
O	0.341151	2.69907	0.844988
H	-0.0933634	2.86524	3.28157
H	0.71093	1.26733	3.54131
H	-1.07332	1.34699	3.23096
N	0.172467	0.468135	1.00516
C	0.359078	0.216447	-0.402104
C	-0.35406	-1.0766	-0.749968
O	-0.815917	-1.79806	0.132019
H	-0.017131	-0.334255	1.56381
H	-0.111611	1.00782	-0.972028
C	1.86043	0.11745	-0.750506
H	2.34152	-0.701154	-0.173898
H	2.01765	-0.0624253	-1.83376
H	2.36358	1.07147	-0.480263
N	-0.467976	-1.39655	-2.05407
C	-1.13518	-2.6045	-2.48053
H	-0.0914118	-0.798056	-2.75341
H	-1.12518	-2.6887	-3.5896
H	-2.19541	-2.60938	-2.13824
H	-0.631197	-3.50276	-2.05594
C	7.44116	2.34231	1.84881
C	6.31326	1.96353	0.968165
O	5.38072	2.72975	0.76897
H	7.2611	3.35968	2.25917
H	8.39045	2.34986	1.27302
H	7.52613	1.62462	2.69189
N	6.37431	0.750317	0.414284
C	5.33139	0.22436	-0.430843
C	5.33473	-1.28718	-0.301142
O	6.23756	-1.86565	0.300503
H	7.11972	0.122192	0.618466
H	4.37133	0.576552	-0.074661
C	5.54985	0.64211	-1.90156
H	6.53006	0.271998	-2.2707
H	4.7457	0.254812	-2.56024
H	5.55172	1.75182	-1.97146
N	4.31262	-1.96493	-0.859662
C	4.22853	-3.40476	-0.782365
H	3.58925	-1.47895	-1.33887
H	3.31654	-3.77386	-1.30128
H	4.18717	-3.73936	0.279528
H	5.11833	-3.87659	-1.25858
