44
  This energy is -0.6749 and Call times are: 13981
C	-0.772096	-2.18013	2.60069
C	-0.53698	-1.89219	1.16787
O	-0.419037	-2.79573	0.351709
H	-0.795313	-3.28081	2.75513
H	-1.74438	-1.75147	2.92266
H	0.0443762	-1.74794	3.21687
N	-0.460292	-0.60386	0.826271
C	-0.192636	-0.168002	-0.521671
C	0.50768	1.17607	-0.45389
O	0.606778	1.78155	0.611604
H	-0.517461	0.119469	1.50847
H	0.489928	-0.863955	-0.993252
C	-1.50054	-0.0566688	-1.33545
H	-2.1969	0.665116	-0.857797
H	-1.30639	0.264798	-2.37923
H	-1.99999	-1.04965	-1.36509
N	1.02037	1.67235	-1.59708
C	1.70874	2.94174	-1.62834
H	0.933789	1.16582	-2.44855
H	2.05645	3.17527	-2.65877
H	2.59592	2.92415	-0.954641
H	1.03523	3.76251	-1.2909
C	9.32819	3.3058	0.356756
C	9.59743	1.85023	0.354979
O	10.7416	1.41811	0.377958
H	10.2931	3.85778	0.36309
H	8.74765	3.5865	1.2606
H	8.75732	3.59047	-0.552163
N	8.52976	1.04927	0.324793
C	8.63287	-0.387933	0.276
C	7.40636	-0.926219	-0.436373
O	6.46299	-0.187321	-0.711667
H	7.6058	1.41611	0.264963
H	9.49674	-0.664209	-0.315637
C	8.73766	-0.982107	1.6977
H	7.84666	-0.707766	2.30176
H	8.83154	-2.08714	1.67297
H	9.63757	-0.56834	2.20297
N	7.39531	-2.23417	-0.760631
C	6.2734	-2.83394	-1.44456
H	8.16975	-2.81519	-0.533161
H	6.45442	-3.91693	-1.62231
H	6.10424	-2.34068	-2.42913
H	5.34294	-2.72819	-0.841066
