44
  This energy is -0.4511 and Call times are: 12325
C	2.73948	1.32614	1.68798
C	1.28353	1.23161	1.43818
O	0.476097	1.7492	2.1975
H	2.91483	1.89375	2.62763
H	3.23801	1.85637	0.849487
H	3.17616	0.31075	1.7947
N	0.910902	0.554232	0.349748
C	-0.470814	0.3403	-0.00189678
C	-0.565137	-0.958424	-0.780339
O	0.449503	-1.54511	-1.15185
H	1.57825	0.103733	-0.236393
H	-1.0546	0.217783	0.901885
C	-1.01457	1.51622	-0.842602
H	-0.422592	1.63567	-1.77498
H	-2.08166	1.36988	-1.10799
H	-0.92836	2.45715	-0.256454
N	-1.79514	-1.44436	-1.03917
C	-1.98292	-2.67665	-1.76881
H	-2.60413	-0.957512	-0.726779
H	-3.06543	-2.90745	-1.87889
H	-1.49577	-3.526	-1.23724
H	-1.53463	-2.60334	-2.78607
C	7.68994	-2.72312	1.47291
C	6.90497	-2.10731	0.379397
O	6.71765	-2.6977	-0.675482
H	8.04835	-3.72435	1.14896
H	7.05735	-2.8432	2.37743
H	8.56802	-2.08899	1.7177
N	6.42275	-0.88413	0.611053
C	5.67683	-0.139578	-0.372719
C	5.89723	1.33895	-0.113982
O	6.47598	1.72123	0.901212
H	6.61822	-0.399933	1.45911
H	6.06954	-0.35663	-1.35826
C	4.17289	-0.483505	-0.301199
H	3.76711	-0.251149	0.70647
H	3.58963	0.0731156	-1.0631
H	4.03604	-1.57144	-0.485614
N	5.44475	2.20962	-1.03767
C	5.61399	3.63529	-0.879526
H	4.98251	1.88099	-1.85463
H	5.17551	4.1816	-1.74353
H	6.6947	3.89734	-0.811107
H	5.11326	3.98979	0.0503888
