44
  This energy is 0 and Call times are: 17015
C	-1.26803	1.21756	3.00372
C	-1.05141	0.126004	2.02765
O	-1.29726	-1.03752	2.31431
H	-1.64428	0.78803	3.95756
H	-2.01798	1.93706	2.61304
H	-0.313472	1.74954	3.20099
N	-0.575657	0.484139	0.832748
C	-0.273414	-0.469666	-0.205263
C	0.836112	0.104039	-1.06629
O	1.20468	1.26849	-0.925124
H	-0.341776	1.43037	0.628282
H	0.104849	-1.37921	0.244481
C	-1.52375	-0.768168	-1.0613
H	-1.906	0.16292	-1.5314
H	-1.30737	-1.51178	-1.85549
H	-2.32516	-1.17949	-0.409444
N	1.40323	-0.709161	-1.97904
C	2.46982	-0.252439	-2.83926
H	1.09422	-1.64951	-2.07565
H	2.80242	-1.06707	-3.51968
H	3.34567	0.080038	-2.23626
H	2.13212	0.608063	-3.46106
C	41.6608	3.00224	-1.5978
C	41.3235	1.90713	-0.660755
O	40.3717	1.99775	0.102418
H	40.9459	3.84145	-1.45463
H	41.5895	2.64427	-2.64638
H	42.6903	3.36976	-1.40213
N	42.1121	0.830503	-0.697563
C	41.9357	-0.297136	0.183274
C	43.2891	-0.949709	0.393027
O	44.2638	-0.606527	-0.273256
H	42.9074	0.788474	-1.29552
H	41.5937	0.053923	1.1489
C	40.9325	-1.30987	-0.411112
H	41.2881	-1.6783	-1.39696
H	40.7776	-2.17613	0.264252
H	39.9518	-0.808617	-0.563551
N	43.3821	-1.90694	1.33699
C	44.6305	-2.57983	1.61068
H	42.5833	-2.16811	1.86874
H	44.5025	-3.33243	2.41966
H	45.4083	-1.84945	1.93138
H	45.0028	-3.10316	0.700359
