44
  This energy is -6.3066 and Call times are: 7353
C	-1.8842	2.39656	-1.67899
C	-0.591717	1.85109	-1.20665
O	0.4712	2.30164	-1.61116
H	-1.69362	3.20538	-2.41747
H	-2.45704	2.81667	-0.825697
H	-2.48125	1.59761	-2.16715
N	-0.65648	0.849652	-0.326137
C	0.515196	0.188034	0.191547
C	0.136575	-1.23851	0.542529
O	-1.03827	-1.60065	0.525422
H	-1.52923	0.466458	-0.0374454
H	1.27006	0.140064	-0.583383
C	1.06096	0.924802	1.43435
H	0.290477	0.965042	2.23358
H	1.97134	0.43293	1.8341
H	1.324	1.96869	1.15605
N	1.13176	-2.08875	0.863012
C	0.86763	-3.46679	1.2057
H	2.07656	-1.77825	0.867318
H	1.81431	-4.0028	1.43744
H	0.365092	-3.9921	0.361441
H	0.201779	-3.52956	2.09668
C	3.605	2.10496	-1.92402
C	4.87341	1.38593	-1.66852
O	5.73884	1.30366	-2.52914
H	3.60664	2.49392	-2.96544
H	3.50083	2.9586	-1.22173
H	2.74287	1.41636	-1.79896
N	5.0119	0.838373	-0.458814
C	6.17137	0.0713186	-0.0769539
C	5.7455	-0.939798	0.97083
O	4.62284	-0.894492	1.47011
H	4.28164	0.878789	0.21716
H	6.53032	-0.484322	-0.934299
C	7.28255	0.989813	0.477029
H	6.91812	1.55222	1.36299
H	8.18596	0.412467	0.761697
H	7.57288	1.72649	-0.303584
N	6.63629	-1.88739	1.32379
C	6.3179	-2.89483	2.30861
H	7.53837	-1.91023	0.905691
H	7.17907	-3.58222	2.46061
H	5.44041	-3.49911	1.98282
H	6.06843	-2.42339	3.28669
