44
  This energy is -2.8309 and Call times are: 15668
C	0.39595	2.56325	2.32071
C	0.184077	1.13965	1.97484
O	0.265483	0.263019	2.82413
H	0.638392	2.64625	3.40247
H	-0.524246	3.14867	2.1127
H	1.23964	2.979	1.73042
N	-0.0950928	0.874724	0.696459
C	-0.284137	-0.465555	0.199996
C	0.120886	-0.489976	-1.26182
O	0.370152	0.55273	-1.86377
H	-0.117576	1.59487	0.0088912
H	0.377937	-1.13932	0.729454
C	-1.75376	-0.911796	0.362213
H	-2.43252	-0.226984	-0.189476
H	-1.90925	-1.94737	-0.00375571
H	-2.03072	-0.878584	1.43857
N	0.20433	-1.69087	-1.86756
C	0.587341	-1.81273	-3.25487
H	0.00277004	-2.52374	-1.3628
H	0.598111	-2.88012	-3.56757
H	1.6043	-1.3888	-3.42027
H	-0.126698	-1.26255	-3.90954
C	6.89733	-2.64045	-1.50329
C	5.72371	-1.74665	-1.38117
O	4.85008	-1.72849	-2.23724
H	6.8248	-3.21423	-2.45269
H	6.92492	-3.35416	-0.653228
H	7.8335	-2.04335	-1.51489
N	5.67909	-0.97072	-0.295661
C	4.6224	-0.0188849	-0.0590816
C	5.18552	1.11488	0.777007
O	6.30916	1.03602	1.26988
H	6.41814	-0.967122	0.371908
H	4.30451	0.404116	-1.00388
C	3.43142	-0.685158	0.664041
H	3.75477	-1.11005	1.63819
H	2.60549	0.0342514	0.839573
H	3.0405	-1.51668	0.0378666
N	4.415	2.20688	0.949739
C	4.86926	3.33754	1.72526
H	3.51019	2.25385	0.539645
H	4.09396	4.13476	1.74953
H	5.79933	3.76643	1.28672
H	5.09093	3.03172	2.77334
