44
  This energy is -3.5832 and Call times are: 7218
C	-0.234688	-2.77324	2.08967
C	0.413948	-2.0182	0.994079
O	1.50093	-2.35848	0.547876
H	0.423996	-3.61481	2.3959
H	-1.20753	-3.18451	1.74735
H	-0.401232	-2.11043	2.9649
N	-0.249888	-0.956498	0.530949
C	0.272969	-0.0987574	-0.503199
C	-0.300741	1.2909	-0.300042
O	-1.19406	1.48959	0.521064
H	-1.11461	-0.668076	0.932111
H	1.34776	-0.0230042	-0.394974
C	-0.0937412	-0.63653	-1.90376
H	-1.19652	-0.704473	-2.01906
H	0.315036	0.00779026	-2.70891
H	0.329449	-1.65731	-2.02731
N	0.209304	2.29272	-1.04317
C	-0.27032	3.64904	-0.914619
H	0.934646	2.11304	-1.69942
H	0.273661	4.32606	-1.60957
H	-0.12202	4.02123	0.124976
H	-1.35787	3.7053	-1.14959
C	5.52831	1.29887	3.22633
C	6.17961	0.751594	2.01495
O	7.39293	0.806272	1.86909
H	6.30193	1.73989	3.89182
H	5.00039	0.490884	3.77515
H	4.80196	2.09055	2.94575
N	5.37251	0.204432	1.10304
C	5.85469	-0.330892	-0.145757
C	4.74687	-0.203091	-1.17434
O	3.61367	0.137586	-0.840408
H	4.38316	0.204099	1.21733
H	6.68781	0.267416	-0.492959
C	6.27777	-1.80765	0.0137262
H	5.42064	-2.42377	0.359799
H	6.66391	-2.22725	-0.937773
H	7.0835	-1.87822	0.776713
N	5.05353	-0.467351	-2.45969
C	4.06559	-0.366933	-3.50853
H	5.97705	-0.737624	-2.71099
H	4.51163	-0.623128	-4.49477
H	3.65813	0.668388	-3.5665
H	3.21634	-1.06191	-3.31641
