44
  This energy is 0 and Call times are: 13165
C	-1.66212	-2.53816	1.70523
C	-0.462388	-1.98595	1.03676
O	0.623862	-2.54142	1.12576
H	-1.38158	-3.45893	2.26142
H	-2.43588	-2.79524	0.951605
H	-2.07593	-1.79756	2.42173
N	-0.635801	-0.858921	0.342419
C	0.445709	-0.179576	-0.326451
C	0.113728	1.29977	-0.38021
O	-0.997954	1.70815	-0.049904
H	-1.51734	-0.396435	0.313101
H	1.35066	-0.28603	0.258672
C	0.65253	-0.740207	-1.75058
H	-0.272236	-0.621668	-2.35456
H	1.49164	-0.234656	-2.271
H	0.886418	-1.82541	-1.68741
N	1.08054	2.14296	-0.792925
C	0.857989	3.56793	-0.87112
H	1.97505	1.79407	-1.05214
H	1.77196	4.08951	-1.23144
H	0.591135	3.97928	0.129309
H	0.0234832	3.79751	-1.57257
C	2.74204	-2.1228	0.0126295
C	3.82902	-1.40256	-0.688006
O	4.09909	-1.6455	-1.85611
H	2.28884	-2.86615	-0.678666
H	1.95662	-1.40827	0.337147
H	3.14562	-2.65591	0.899192
N	4.48884	-0.486026	0.024023
C	5.59873	0.265217	-0.507332
C	6.51515	0.633506	0.644236
O	6.1732	0.43722	1.80882
H	4.28444	-0.328442	0.985918
H	6.16558	-0.364005	-1.18215
C	5.10704	1.53531	-1.23558
H	4.53441	2.18622	-0.540986
H	5.95148	2.1152	-1.66121
H	4.43193	1.2423	-2.06908
N	7.71296	1.1722	0.342472
C	8.65328	1.54901	1.37203
H	7.97347	1.31958	-0.605942
H	9.57875	1.97269	0.923428
H	8.93564	0.665103	1.98868
H	8.20927	2.31448	2.04883
