44
  This energy is -0.0917 and Call times are: 14687
C	-1.83914	1.36867	-2.61858
C	-0.604144	1.26228	-1.80951
O	0.438493	1.78823	-2.17378
H	-1.62543	1.95284	-3.53997
H	-2.63218	1.88742	-2.04003
H	-2.19492	0.357529	-2.90861
N	-0.696266	0.564815	-0.674861
C	0.430201	0.337728	0.195808
C	0.207985	-0.974325	0.924293
O	-0.869497	-1.56177	0.849125
H	-1.54141	0.108101	-0.412169
H	1.32673	0.227273	-0.401406
C	0.590526	1.49652	1.20414
H	-0.32494	1.60347	1.82424
H	1.46292	1.34012	1.87121
H	0.743996	2.44757	0.648896
N	1.23297	-1.47102	1.64452
C	1.1158	-2.71632	2.36679
H	2.09849	-0.983292	1.68996
H	2.06456	-2.95465	2.8962
H	0.883234	-3.55407	1.67011
H	0.29822	-2.65768	3.12128
C	7.3734	0.375172	-3.43406
C	6.72107	-0.251097	-2.26213
O	5.72464	-0.949044	-2.39022
H	6.80579	0.113917	-4.35352
H	8.41454	0.00334191	-3.5366
H	7.38507	1.47974	-3.32063
N	7.27788	-0.00885389	-1.07315
C	6.73199	-0.513478	0.162128
C	7.1058	0.44988	1.27288
O	7.89959	1.36678	1.07068
H	8.06469	0.594628	-0.980497
H	5.65119	-0.526127	0.0962601
C	7.27256	-1.92768	0.467186
H	8.38059	-1.91328	0.545299
H	6.84887	-2.33287	1.4089
H	6.99422	-2.6138	-0.362338
N	6.53146	0.267613	2.47826
C	6.82232	1.13807	3.59355
H	5.88846	-0.477465	2.62139
H	6.25217	0.825031	4.49586
H	6.54702	2.19044	3.35267
H	7.90876	1.11295	3.83885
