44
  This energy is 0.1677 and Call times are: 659
C	1.61485	1.41352	2.73987
C	1.48726	1.16981	1.28541
O	2.15946	1.79562	0.477373
H	2.3621	2.21815	2.9133
H	1.95502	0.490227	3.25423
H	0.638461	1.73291	3.16147
N	0.604147	0.239695	0.914763
C	0.337881	-0.0780908	-0.466061
C	-1.09236	-0.573205	-0.570155
O	-1.75448	-0.802658	0.44012
H	0.0349062	-0.232313	1.58188
H	0.411061	0.823923	-1.06074
C	1.32111	-1.15012	-0.984957
H	1.23894	-2.07937	-0.381827
H	1.13523	-1.39338	-2.05116
H	2.36169	-0.769488	-0.8919
N	-1.60732	-0.742142	-1.80397
C	-2.96144	-1.20441	-2.0011
H	-1.0574	-0.547302	-2.60938
H	-3.19775	-1.2785	-3.08549
H	-3.68829	-0.502915	-1.53114
H	-3.10464	-2.20906	-1.54139
C	0.68422	-2.1992	-1.2959
C	1.07584	-0.881199	-0.747574
O	0.316556	0.0765592	-0.798611
H	-0.334923	-2.12661	-1.734
H	0.675105	-2.96194	-0.489119
H	1.39546	-2.50992	-2.09005
N	2.29252	-0.802495	-0.20364
C	2.83056	0.423053	0.332183
C	4.3411	0.374044	0.200134
O	4.90999	-0.660262	-0.143785
H	2.91478	-1.58008	-0.20628
H	2.48155	1.25708	-0.263819
C	2.42186	0.605199	1.81037
H	2.78876	-0.244948	2.42411
H	2.81853	1.55217	2.23041
H	1.31269	0.630312	1.88404
N	5.02879	1.50245	0.464321
C	6.46852	1.55217	0.360011
H	4.55046	2.33058	0.737252
H	6.84663	2.56623	0.616801
H	6.79588	1.3082	-0.676614
H	6.93841	0.816783	1.05251
