44
  This energy is -4.856 and Call times are: 387
C	-0.455546	-1.06568	3.28169
C	-0.829888	-0.229085	2.11931
O	-1.87958	0.398838	2.10321
H	-1.26256	-1.0165	4.04471
H	0.488488	-0.693898	3.7326
H	-0.323276	-2.12208	2.9661
N	0.0353179	-0.204195	1.10286
C	-0.210056	0.529554	-0.113679
C	0.518488	-0.172115	-1.24436
O	1.30542	-1.08825	-1.0138
H	0.866327	-0.75299	1.11355
H	-1.26794	0.497796	-0.342808
C	0.272199	1.99095	0.0166788
H	1.35961	2.0243	0.241316
H	0.0761971	2.57015	-0.908865
H	-0.268328	2.4824	0.854925
N	0.264668	0.239395	-2.50224
C	0.906908	-0.372833	-3.64193
H	-0.378348	0.979511	-2.66907
H	0.567397	0.103966	-4.58777
H	0.666561	-1.4596	-3.69135
H	2.01379	-0.266834	-3.57324
C	3.7167	2.42397	-2.37141
C	4.63361	1.41759	-1.79033
O	5.63917	1.05816	-2.38703
H	4.0947	2.73168	-3.37055
H	3.66501	3.31841	-1.71563
H	2.70017	1.9928	-2.48894
N	4.29909	0.931378	-0.592797
C	5.06907	-0.0848449	0.0802462
C	4.12943	-0.881217	0.965938
O	2.96992	-0.51359	1.14511
H	3.45595	1.20351	-0.137915
H	5.47736	-0.76838	-0.653715
C	6.20054	0.546446	0.920771
H	5.78149	1.23976	1.68088
H	6.80928	-0.226607	1.43297
H	6.87114	1.13075	0.253524
N	4.60947	-2.00333	1.53728
C	3.78695	-2.82815	2.39128
H	5.54921	-2.28674	1.37714
H	4.36175	-3.70472	2.76339
H	2.89664	-3.20291	1.83615
H	3.42607	-2.2465	3.27025
