44
  This energy is -2.7697 and Call times are: 12181
C	-2.95199	-1.22457	-1.378
C	-1.61048	-1.42255	-0.784462
O	-1.22792	-2.53246	-0.440717
H	-3.48321	-2.20028	-1.4188
H	-2.85889	-0.822693	-2.40881
H	-3.54422	-0.51861	-0.758334
N	-0.855218	-0.330263	-0.647123
C	0.455446	-0.35752	-0.0471414
C	0.71459	0.997104	0.584834
O	-0.0516401	1.93908	0.391749
H	-1.19625	0.572345	-0.89383
H	0.469069	-1.09239	0.748105
C	1.53787	-0.679505	-1.10067
H	1.53135	0.079994	-1.91132
H	2.55009	-0.717031	-0.64841
H	1.32376	-1.67126	-1.55556
N	1.80461	1.12394	1.367
C	2.12899	2.37355	2.01465
H	2.4105	0.34922	1.51462
H	3.06126	2.27576	2.61343
H	1.30585	2.68781	2.69652
H	2.27933	3.17967	1.26053
C	4.98006	2.43903	2.34341
C	5.73975	1.96876	1.16321
O	6.38713	2.74664	0.476033
H	5.10048	3.53969	2.44299
H	5.36277	1.95086	3.26426
H	3.90134	2.20505	2.22224
N	5.67396	0.662126	0.897184
C	6.32449	0.0633498	-0.2416
C	5.52893	-1.16196	-0.650593
O	4.61496	-1.58392	0.0553195
H	5.10976	0.048168	1.44178
H	6.29905	0.756746	-1.07297
C	7.78086	-0.324436	0.0958047
H	7.80694	-1.04392	0.941802
H	8.29689	-0.773923	-0.777234
H	8.342	0.586022	0.399989
N	5.85536	-1.75997	-1.81328
C	5.1502	-2.92833	-2.28642
H	6.59527	-1.40142	-2.37278
H	5.56571	-3.27119	-3.25957
H	4.06802	-2.70382	-2.42702
H	5.23723	-3.76334	-1.55408
