44
  This energy is -4.8215 and Call times are: 5028
C	-0.423145	-1.8296	2.93022
C	-0.872827	-0.814379	1.95132
O	-2.00512	-0.353273	1.9925
H	-1.25938	-2.06749	3.62304
H	0.432588	-1.43951	3.52039
H	-0.116578	-2.75853	2.40467
N	0.0200721	-0.439891	1.03215
C	-0.284181	0.506528	-0.0120156
C	0.590539	0.186935	-1.20963
O	1.49885	-0.6373	-1.12404
H	0.924523	-0.854307	0.986375
H	-1.31399	0.378354	-0.321356
C	-0.0387333	1.95417	0.466858
H	1.02017	2.08905	0.774387
H	-0.282641	2.69311	-0.323715
H	-0.683197	2.16334	1.34848
N	0.32933	0.830776	-2.3643
C	1.10545	0.58728	-3.55784
H	-0.412467	1.49125	-2.41507
H	0.736504	1.21183	-4.40107
H	1.0377	-0.48328	-3.85881
H	2.17892	0.830016	-3.38497
C	4.82267	2.37205	2.50165
C	4.42857	1.71805	1.23354
O	3.34248	1.94151	0.716941
H	3.99366	3.02502	2.85126
H	5.72895	2.99425	2.34583
H	5.02933	1.60644	3.27896
N	5.31793	0.879257	0.697009
C	5.0604	0.136256	-0.511372
C	5.86199	-1.15055	-0.45529
O	6.69811	-1.33373	0.427352
H	6.18104	0.676347	1.15057
H	4.01323	-0.137288	-0.546207
C	5.44654	0.960799	-1.75888
H	6.52321	1.23271	-1.7288
H	5.24001	0.40483	-2.6963
H	4.85366	1.90131	-1.7751
N	5.61733	-2.08125	-1.39867
C	6.32746	-3.33876	-1.42201
H	4.93406	-1.9165	-2.10229
H	5.98471	-3.96823	-2.27261
H	6.15702	-3.90369	-0.476982
H	7.42326	-3.1694	-1.53013
