44
  This energy is -0.3006 and Call times are: 16455
C	3.39538	-0.231619	0.728288
C	2.23698	-0.447819	-0.167532
O	2.3925	-0.782471	-1.33382
H	4.33571	-0.403493	0.160717
H	3.35637	-0.940248	1.58214
H	3.39285	0.810256	1.11245
N	1.02902	-0.255538	0.367494
C	-0.190451	-0.385662	-0.390471
C	-1.23042	0.531059	0.225685
O	-1.01687	1.09559	1.29686
H	0.91989	0.0565076	1.30695
H	-0.0193686	-0.0443061	-1.4038
C	-0.688044	-1.84773	-0.388264
H	-0.873778	-2.19499	0.650461
H	-1.61902	-1.96354	-0.980203
H	0.0918845	-2.50151	-0.836177
N	-2.3851	0.707576	-0.446308
C	-3.43067	1.56591	0.0599003
H	-2.53786	0.245451	-1.31359
H	-4.29886	1.58007	-0.635272
H	-3.05924	2.60963	0.178054
H	-3.78374	1.2104	1.05494
C	4.43952	-0.741383	-0.519865
C	5.64118	-0.674735	0.341946
O	5.56196	-0.835267	1.55206
H	3.54443	-0.929784	0.111935
H	4.54099	-1.56742	-1.25479
H	4.30234	0.219016	-1.06013
N	6.80019	-0.429741	-0.273739
C	8.04781	-0.29351	0.435795
C	8.94843	0.628978	-0.363878
O	8.63594	0.986695	-1.49794
H	6.84275	-0.260681	-1.25428
H	7.86529	0.182415	1.3912
C	8.72177	-1.66866	0.635742
H	8.91882	-2.1527	-0.344524
H	9.67665	-1.57868	1.19308
H	8.04178	-2.32969	1.21626
N	10.0914	1.0445	0.21653
C	11.008	1.92791	-0.465885
H	10.3251	0.747547	1.13648
H	11.8875	2.15437	0.176248
H	10.5073	2.88862	-0.725994
H	11.3733	1.46238	-1.4098
