44
  This energy is -4.3189 and Call times are: 9480
C	0.335501	2.47217	2.42662
C	-0.485816	1.64038	1.51849
O	-1.70503	1.6131	1.61437
H	-0.329447	2.994	3.14872
H	0.900041	3.23089	1.84492
H	1.04793	1.83391	2.99068
N	0.17673	0.929918	0.60271
C	-0.481378	0.0414527	-0.322538
C	0.488638	-1.06733	-0.684774
O	1.66702	-1.0113	-0.338376
H	1.17189	0.930891	0.563598
H	-1.33002	-0.419624	0.167201
C	-0.933704	0.800439	-1.58926
H	-0.0620773	1.26481	-2.09785
H	-1.45415	0.129967	-2.30349
H	-1.63649	1.61192	-1.29954
N	0.0096005	-2.11208	-1.38837
C	0.85722	-3.21632	-1.77358
H	-0.947784	-2.14147	-1.656
H	0.278881	-3.97522	-2.34526
H	1.29113	-3.7107	-0.874367
H	1.69836	-2.86194	-2.41236
C	3.05256	2.51957	-1.83574
C	3.6078	1.15334	-1.70823
O	3.41782	0.309567	-2.57332
H	2.47152	2.59318	-2.78064
H	3.87427	3.26587	-1.86007
H	2.37848	2.73997	-0.981275
N	4.31676	0.901406	-0.605375
C	4.88352	-0.39319	-0.320142
C	4.96982	-0.550225	1.18633
O	4.74446	0.400584	1.93257
H	4.42823	1.58622	0.109091
H	4.21695	-1.16367	-0.68711
C	6.28161	-0.536591	-0.960475
H	6.96881	0.247176	-0.576395
H	6.72277	-1.53437	-0.75965
H	6.19556	-0.410211	-2.06182
N	5.29237	-1.76564	1.67084
C	5.3928	-2.0111	3.09064
H	5.46715	-2.52375	1.05132
H	5.66763	-3.07068	3.28808
H	4.42195	-1.801	3.59521
H	6.16884	-1.35615	3.54884
