44
  This energy is -2.6135 and Call times are: 10853
C	2.96062	0.972676	1.54963
C	1.74718	1.26873	0.755227
O	1.40653	2.42094	0.525481
H	3.43055	1.92722	1.87193
H	3.68965	0.402233	0.936559
H	2.69324	0.38151	2.4508
N	1.05579	0.2157	0.313085
C	-0.169297	0.344561	-0.435993
C	-1.01881	-0.883519	-0.168229
O	-0.56017	-1.84487	0.445906
H	1.32305	-0.715763	0.542902
H	-0.720687	1.20338	-0.0740152
C	0.119843	0.484071	-1.94668
H	0.676298	-0.401631	-2.32075
H	-0.814954	0.597949	-2.53295
H	0.749251	1.38449	-2.11826
N	-2.28873	-0.875787	-0.619086
C	-3.1732	-1.99769	-0.406402
H	-2.64311	-0.0870366	-1.11037
H	-4.17346	-1.79966	-0.850802
H	-3.30582	-2.19237	0.682535
H	-2.75792	-2.91972	-0.873884
C	1.98706	3.11905	-1.52156
C	1.74668	2.19737	-0.388476
O	1.34559	2.61166	0.690369
H	1.76466	4.16022	-1.20164
H	1.32713	2.8566	-2.375
H	3.04819	3.06097	-1.8436
N	1.99331	0.904554	-0.612478
C	1.84767	-0.105997	0.405428
C	2.8184	-1.23055	0.0977947
O	3.43599	-1.2563	-0.965041
H	2.35846	0.587925	-1.48327
H	2.12946	0.309994	1.36468
C	0.398717	-0.63865	0.450704
H	0.112728	-1.07504	-0.530018
H	0.270366	-1.40755	1.2399
H	-0.294844	0.2025	0.669284
N	2.98221	-2.18815	1.0317
C	3.88874	-3.29422	0.829272
H	2.4767	-2.14792	1.88722
H	3.88319	-3.97352	1.71005
H	4.92931	-2.92641	0.67693
H	3.59566	-3.88316	-0.0698391
