44
  This energy is -3.0481 and Call times are: 9609
C	1.47438	-2.199	-2.25904
C	0.733025	-1.91756	-1.00911
O	0.205006	-2.81716	-0.370103
H	1.43178	-3.28892	-2.47386
H	2.53681	-1.89537	-2.15049
H	1.01734	-1.64737	-3.10752
N	0.674902	-0.639189	-0.628637
C	-0.0464051	-0.204785	0.541649
C	-0.50844	1.22156	0.310101
O	-0.115095	1.86073	-0.663787
H	1.07481	0.0866345	-1.18102
H	-0.932576	-0.815363	0.662179
C	0.843907	-0.28789	1.80089
H	1.74796	0.346603	1.68198
H	0.295533	0.0308585	2.71095
H	1.17683	-1.33878	1.94626
N	-1.36698	1.75335	1.20236
C	-1.86516	3.1017	1.06103
H	-1.67712	1.21914	1.98178
H	-2.55856	3.35401	1.89334
H	-2.41507	3.21845	0.0991357
H	-1.02552	3.83387	1.06974
C	7.26785	-0.756483	-2.93078
C	6.17598	-0.997892	-1.96088
O	5.25316	-1.75704	-2.22262
H	7.07259	-1.34033	-3.85645
H	8.23962	-1.07853	-2.50103
H	7.31785	0.322104	-3.19005
N	6.25789	-0.343514	-0.800076
C	5.24932	-0.443056	0.225313
C	5.24561	0.853777	1.01258
O	6.12271	1.69791	0.83982
H	6.99369	0.302448	-0.617885
H	4.27608	-0.541183	-0.239232
C	5.52749	-1.64204	1.15822
H	6.52135	-1.53658	1.64315
H	4.75013	-1.73767	1.94377
H	5.5335	-2.57908	0.559682
N	4.24607	1.04628	1.89568
C	4.1572	2.25217	2.68569
H	3.54323	0.353463	2.01853
H	3.26647	2.22157	3.3512
H	4.07259	3.14736	2.02786
H	5.06494	2.37436	3.3199
