44
  This energy is -5.1982 and Call times are: 9581
C	-0.974993	3.31574	0.409769
C	0.00241336	2.28747	-0.0126822
O	0.99238	2.58582	-0.666412
H	-0.653448	4.30806	0.0253112
H	-1.02911	3.35998	1.51786
H	-1.97975	3.07995	-6.05142e-05
N	-0.260443	1.03167	0.356456
C	0.57476	-0.0828445	-0.016167
C	-0.295138	-1.32391	-0.0839456
O	-1.45782	-1.3006	0.315216
H	-1.0915	0.798686	0.853374
H	0.973853	0.0859265	-1.00857
C	1.71955	-0.27895	1.00179
H	1.31055	-0.46261	2.01817
H	2.37788	-1.12562	0.718462
H	2.33824	0.644123	1.04065
N	0.249824	-2.4419	-0.602738
C	-0.503559	-3.66931	-0.712554
H	1.19094	-2.44007	-0.924234
H	0.118293	-4.47336	-1.16425
H	-1.40394	-3.52166	-1.35192
H	-0.845171	-4.01194	0.290964
C	5.77031	-2.04019	-2.81707
C	5.14884	-1.61205	-1.54364
O	4.04292	-2.01602	-1.21174
H	5.07488	-2.7209	-3.35453
H	6.71931	-2.5807	-2.61706
H	5.9761	-1.15727	-3.4583
N	5.85856	-0.767882	-0.791263
C	5.36817	-0.229684	0.453093
C	6.00946	1.12857	0.666353
O	6.91849	1.51755	-0.0644383
H	6.7396	-0.415953	-1.09419
H	4.29924	-0.0735221	0.378176
C	5.69632	-1.17422	1.63013
H	6.79353	-1.32638	1.71395
H	5.31171	-0.777524	2.59201
H	5.22373	-2.16425	1.44896
N	5.54133	1.88958	1.67518
C	6.08639	3.19853	1.9504
H	4.80245	1.55933	2.25315
H	5.56927	3.66551	2.81743
H	5.96527	3.86791	1.06804
H	7.17326	3.13027	2.18533
