29
  This energy is -0.00628026 and Call times are: 307
C	0.89391	0.668008	0.496788
N	1.89893	1.62912	0.754558
H	2.11028	2.35666	0.0563966
H	2.42805	1.61236	1.6388
N	0.205985	0.705697	-0.675487
C	-0.764329	-0.206079	-0.947488
O	-1.36703	-0.152123	-2.00448
N	-1.0637	-1.18534	-0.0321486
C	-0.395367	-1.25188	1.14958
H	-1.80986	-1.88688	-0.240718
C	0.601735	-0.322145	1.43941
H	-0.636701	-2.02658	1.8664
H	1.13689	-0.371079	2.37942
C	6.46204	0.786953	1.10398
O	6.12331	1.63008	1.95294
N	5.95623	-0.560525	1.2208
C	6.23567	-1.60854	0.364801
H	5.34718	-0.691921	2.01916
N	5.66779	-2.82095	0.629193
H	5.05953	-2.98468	1.41211
H	5.87783	-3.57789	0.000327751
N	7.02707	-1.48395	-0.693371
C	7.5325	-0.225554	-0.848464
C	7.31304	0.899112	-0.0433096
N	8.01308	1.99989	-0.542486
C	8.63725	1.55116	-1.61849
N	8.37677	0.197107	-1.84964
H	9.27661	2.13245	-2.26119
H	8.72776	-0.379138	-2.59768
