29
  This energy is -0.0202902 and Call times are: 738
C	-0.888415	-0.167557	0.821433
N	-1.88156	-0.714376	1.66696
H	-2.07615	-1.72593	1.64957
H	-2.41861	-0.110259	2.30629
N	-0.189748	-0.980037	-0.0156046
C	0.769537	-0.479664	-0.837936
O	1.38222	-1.22719	-1.57903
N	1.04657	0.865565	-0.832473
C	0.366986	1.70596	-0.00816117
H	1.78424	1.25104	-1.46467
C	-0.618977	1.20408	0.839541
H	0.590711	2.76529	-0.00923258
H	-1.16302	1.86958	1.49797
C	5.41892	0.105211	-1.45252
O	5.52747	0.338098	-2.66921
N	4.38259	-0.795817	-1.00602
C	4.13098	-1.1568	0.303771
H	3.82079	-1.16653	-1.76268
N	3.10522	-2.0243	0.54379
H	2.52925	-2.41013	-0.183635
H	2.92965	-2.28063	1.50088
N	4.84003	-0.697309	1.32733
C	5.83474	0.160983	0.957261
C	6.1712	0.588915	-0.33308
N	7.2542	1.4698	-0.28745
C	7.56186	1.57016	0.994738
N	6.72455	0.789932	1.79778
H	8.35571	2.17165	1.40434
H	6.74859	0.691189	2.80002
