29
  This energy is -0.0162163 and Call times are: 378
C	-0.961631	0.0705721	0.74993
N	-1.99166	-0.202888	1.67972
H	-2.08037	-1.1429	2.09193
H	-2.6612	0.531156	1.95364
N	-0.0872978	-0.910376	0.400396
C	0.911094	-0.673491	-0.490632
O	1.6822	-1.56805	-0.788217
N	1.04926	0.571739	-1.05342
C	0.192538	1.57501	-0.726185
H	1.81691	0.754594	-1.73877
C	-0.835169	1.34369	0.186461
H	0.307499	2.55411	-1.17381
H	-1.52011	2.13972	0.450276
C	4.39899	0.0581465	0.401565
O	3.28098	0.240268	0.91461
N	4.49612	-0.762505	-0.782617
C	5.65734	-1.0605	-1.46959
H	3.60296	-1.12517	-1.09297
N	5.56235	-1.85629	-2.57413
H	4.69241	-2.23206	-2.90842
H	6.4136	-2.06794	-3.06719
N	6.84949	-0.608338	-1.10095
C	6.81173	0.174457	0.0165814
C	5.69556	0.535083	0.781696
N	6.0791	1.35061	1.84881
C	7.39001	1.47787	1.7303
N	7.88733	0.778429	0.626583
H	8.02741	2.04466	2.38773
H	8.84399	0.714181	0.317584
