29
  This energy is -0.00283321 and Call times are: 93
C	-0.552321	-0.858098	0.671355
N	-0.964589	-2.07557	1.26132
H	-0.529251	-2.9637	0.973007
H	-1.70102	-2.08765	1.98219
N	0.420893	-0.861483	-0.278242
C	0.834971	0.294514	-0.860515
O	1.70841	0.266373	-1.70887
N	0.269332	1.49078	-0.492511
C	-0.705895	1.53006	0.453523
H	0.587349	2.38021	-0.939939
C	-1.13857	0.350826	1.05752
H	-1.14726	2.47671	0.738627
H	-1.91514	0.37705	1.81162
C	7.68524	0.0812066	0.246873
O	8.86035	0.0384493	0.651378
N	7.40682	0.723104	-1.01631
C	6.16245	0.853811	-1.60251
H	8.23419	1.09179	-1.4692
N	6.08461	1.49355	-2.80543
H	6.88553	1.87051	-3.28102
H	5.17399	1.5841	-3.22388
N	5.05108	0.386948	-1.04712
C	5.26097	-0.230261	0.152074
C	6.4733	-0.414765	0.828478
N	6.26253	-1.09632	2.02931
C	4.95938	-1.31636	2.07549
N	4.30119	-0.806935	0.952108
H	4.4364	-1.8237	2.86849
H	3.31577	-0.84293	0.746042
