29
  This energy is -0.00332574 and Call times are: 152
C	-0.566903	0.860209	0.656331
N	-1.26171	2.01529	1.08445
H	-1.55145	2.72831	0.399573
H	-1.48461	2.15568	2.08082
N	-0.281509	0.691864	-0.662419
C	0.384896	-0.408874	-1.09958
O	0.629196	-0.537643	-2.28581
N	0.781347	-1.37292	-0.205228
C	0.512264	-1.23614	1.12009
H	1.2939	-2.21974	-0.540792
C	-0.17056	-0.111461	1.57995
H	0.827843	-2.00012	1.81936
H	-0.387206	0.00195444	2.63476
C	6.59244	-0.609124	-0.750341
O	7.39687	-1.07855	-1.57428
N	6.92086	-0.668341	0.654588
C	6.1392	-0.194301	1.69067
H	7.81527	-1.10616	0.838733
N	6.60879	-0.335271	2.96422
H	7.49115	-0.76447	3.18099
H	6.03203	0.0126353	3.71179
N	4.96135	0.386326	1.49807
C	4.60394	0.466727	0.183204
C	5.31867	0.02042	-0.935401
N	4.60823	0.290606	-2.10724
C	3.49614	0.883134	-1.70611
N	3.4443	1.01502	-0.315193
H	2.70549	1.23391	-2.34765
H	2.71051	1.42792	0.237861
