29
  This energy is -0.0252909 and Call times are: 8152
C	-0.988059	0.665855	-0.26923
N	-1.87731	1.68853	-0.673751
H	-1.5099	2.58909	-1.01347
H	-2.89705	1.54493	-0.633352
N	0.35442	0.873238	-0.32949
C	1.23	-0.0930457	0.053237
O	2.42823	0.115942	-0.00971318
N	0.763822	-1.30168	0.509625
C	-0.571995	-1.5422	0.582673
H	1.4367	-2.04528	0.804125
C	-1.47935	-0.558642	0.192881
H	-0.932269	-2.49732	0.943458
H	-2.54438	-0.745552	0.249269
C	6.00535	-1.03043	-0.276336
O	5.33807	-2.04893	-0.528779
N	5.31445	0.220146	-0.0667719
C	5.90625	1.43515	0.220797
H	4.30827	0.140619	-0.149513
N	5.09493	2.51964	0.388082
H	4.0939	2.47477	0.312807
H	5.53547	3.39995	0.596684
N	7.2194	1.58763	0.338963
C	7.91972	0.431538	0.149034
C	7.4198	-0.843304	-0.144499
N	8.46563	-1.76158	-0.262515
C	9.56535	-1.05972	-0.046296
N	9.28681	0.286173	0.210052
H	10.5699	-1.44758	-0.0589613
H	9.94314	1.02525	0.404496
