29
  This energy is -0.000637861 and Call times are: 5368
C	1.16234	0.0836877	0.366149
N	2.40209	-0.0841532	1.02578
H	2.49498	-0.774604	1.78476
H	3.22174	0.479313	0.755944
N	0.0916868	-0.668679	0.735652
C	-1.11041	-0.526773	0.117874
O	-2.0551	-1.21203	0.466292
N	-1.25847	0.38724	-0.89656
C	-0.20875	1.15549	-1.29086
H	-2.18273	0.496869	-1.37211
C	1.02883	1.01866	-0.664535
H	-0.332811	1.87396	-2.09126
H	1.86797	1.6284	-0.975123
C	8.60342	0.435686	-0.488624
O	9.76999	0.819871	-0.683124
N	7.75302	0.187535	-1.62899
C	6.44007	-0.240538	-1.58346
H	8.21182	0.35838	-2.51549
N	5.78434	-0.423982	-2.76613
H	6.21021	-0.263653	-3.66205
H	4.82847	-0.735346	-2.72239
N	5.79784	-0.477381	-0.44635
C	6.56022	-0.256808	0.664145
C	7.89121	0.174279	0.726892
N	8.30812	0.276707	2.05604
C	7.2576	-0.0824881	2.77445
N	6.16317	-0.418292	1.97184
H	7.21677	-0.122313	3.84986
H	5.25029	-0.722373	2.27017
