29
  This energy is 0.000500476 and Call times are: 5593
C	0.538976	-1.01908	0.403855
N	1.4467	-1.9684	0.928331
H	2.39238	-1.6767	1.21472
H	1.17364	-2.95703	1.02924
N	0.916748	0.281058	0.278031
C	0.0635767	1.21271	-0.222924
O	0.424601	2.37133	-0.32613
N	-1.20218	0.847585	-0.611455
C	-1.61218	-0.443502	-0.499246
H	-1.85885	1.56363	-0.996809
C	-0.745808	-1.40761	0.0131154
H	-2.61141	-0.724077	-0.807531
H	-1.06785	-2.43735	0.104417
C	10.1534	-1.08925	-0.970049
O	10.3092	-1.88914	-1.90932
N	9.23256	-1.42983	0.0888121
C	8.94806	-0.654472	1.19653
H	8.78406	-2.32806	-0.0439211
N	8.04676	-1.13554	2.10127
H	7.5845	-2.02194	1.99944
H	7.84595	-0.563297	2.90424
N	9.51067	0.528002	1.41283
C	10.3915	0.896918	0.437618
C	10.7486	0.189327	-0.716988
N	11.685	0.911054	-1.46078
C	11.8866	2.02281	-0.773692
N	11.1201	2.0636	0.394886
H	12.5539	2.82069	-1.05281
H	11.0901	2.79485	1.08711
