29
  This energy is -0.00378086 and Call times are: 4561
C	-0.674304	0.859077	0.547183
N	-1.72358	1.60345	1.13471
H	-2.67251	1.20596	1.18899
H	-1.55143	2.54655	1.51294
N	-0.920102	-0.383771	0.0534192
C	0.0705492	-1.11947	-0.515953
O	-0.173799	-2.2304	-0.951286
N	1.34352	-0.610603	-0.599695
C	1.62379	0.6284	-0.116051
H	2.10589	-1.17591	-1.03747
C	0.615785	1.39201	0.469982
H	2.62959	1.0231	-0.185506
H	0.834176	2.37952	0.856669
C	7.24261	-0.758401	0.753006
O	8.15498	-1.48191	1.18942
N	6.45045	0.00382424	1.68932
C	5.40643	0.849863	1.36777
H	6.72915	-0.132008	2.6534
N	4.76541	1.49284	2.3866
H	5.01689	1.3802	3.35295
H	4.00617	2.10634	2.14223
N	5.00613	1.05927	0.119785
C	5.72492	0.359514	-0.805828
C	6.79414	-0.517949	-0.586438
N	7.25885	-1.03261	-1.79892
C	6.49099	-0.48083	-2.7234
N	5.53737	0.378243	-2.16901
H	6.56488	-0.651404	-3.78415
H	4.83784	0.917471	-2.65346
