29
  This energy is -0.00752057 and Call times are: 5461
C	-0.809128	0.174306	-0.898353
N	-1.80408	0.694162	-1.75863
H	-2.22658	1.61361	-1.56491
H	-2.11573	0.161842	-2.58424
N	-0.410373	0.890848	0.186291
C	0.543668	0.413848	1.02838
O	0.884533	1.07389	1.99355
N	1.12127	-0.809382	0.790679
C	0.746015	-1.55165	-0.284407
H	1.85509	-1.17682	1.43793
C	-0.231438	-1.0726	-1.15487
H	1.20567	-2.51506	-0.465523
H	-0.533682	-1.66025	-2.01261
C	5.36808	1.32772	-0.57998
O	5.58904	2.34645	-1.258
N	4.83602	1.48105	0.753658
C	4.53717	0.455657	1.63025
H	4.68816	2.44762	1.01722
N	4.03946	0.785966	2.85725
H	3.88101	1.73418	3.14971
H	3.82548	0.0321997	3.48858
N	4.71384	-0.824864	1.32923
C	5.21662	-1.02385	0.0759603
C	5.55094	-0.0605125	-0.883996
N	6.03455	-0.673822	-2.04197
C	5.99303	-1.97074	-1.78702
N	5.5008	-2.23808	-0.506015
H	6.2947	-2.75306	-2.46284
H	5.37036	-3.13731	-0.0710871
