29
  This energy is -0.00356555 and Call times are: 4166
C	0.413349	-0.939109	0.662816
N	1.07378	-1.75784	1.60821
H	1.7022	-1.3369	2.30771
H	0.934435	-2.77898	1.60778
N	0.609254	0.406352	0.678534
C	-0.013316	1.21505	-0.218821
O	0.177804	2.41743	-0.185098
N	-0.855586	0.676808	-1.16079
C	-1.07379	-0.664111	-1.20457
H	-1.33472	1.29822	-1.85122
C	-0.440744	-1.50326	-0.289318
H	-1.73906	-1.08139	-1.94991
H	-0.611407	-2.57206	-0.320238
C	5.04229	-0.511516	0.638165
O	4.00435	-1.09081	1.00344
N	5.57082	0.552921	1.45842
C	6.70815	1.29174	1.19423
H	5.01882	0.730579	2.28867
N	7.06145	2.2646	2.08364
H	6.53613	2.46606	2.91624
H	7.89091	2.79744	1.88211
N	7.46257	1.09491	0.120147
C	7.0042	0.0966389	-0.690045
C	5.87074	-0.706946	-0.514453
N	5.74867	-1.6145	-1.56914
C	6.77978	-1.36479	-2.35857
N	7.5782	-0.327899	-1.86652
H	7.00604	-1.8796	-3.27701
H	8.41626	0.0523174	-2.27627
