29
  This energy is -0.00388827 and Call times are: 6167
C	0.385322	-1.15624	-0.0821794
N	0.616502	-2.49406	-0.478449
H	0.159701	-2.87011	-1.32186
H	1.24104	-3.10417	0.0691401
N	-0.441853	-0.365911	-0.817066
C	-0.680591	0.922808	-0.457846
O	-1.4254	1.61145	-1.13196
N	-0.0830129	1.44625	0.662569
C	0.749384	0.683823	1.41981
H	-0.266194	2.43733	0.939393
C	1.00164	-0.639169	1.06111
H	1.21695	1.10314	2.30173
H	1.66397	-1.25045	1.66116
C	5.61853	-1.01298	-0.700453
O	4.90656	-1.95616	-1.08757
N	6.20456	-0.13368	-1.68462
C	7.01493	0.953768	-1.42017
H	5.96667	-0.383151	-2.63685
N	7.48288	1.67687	-2.4787
H	7.26584	1.45629	-3.43473
H	8.07261	2.46654	-2.27577
N	7.35319	1.31872	-0.189743
C	6.82338	0.517007	0.779598
C	5.9961	-0.601542	0.619096
N	5.66848	-1.14774	1.86219
C	6.28138	-0.379878	2.74732
N	7.00089	0.65221	2.13754
H	6.25055	-0.506857	3.81629
H	7.55048	1.36826	2.58477
