29
  This energy is -0.00028767 and Call times are: 3503
C	0.369372	0.452442	-1.07283
N	0.956755	0.643926	-2.34506
H	1.51078	-0.109227	-2.77776
H	0.837691	1.53412	-2.85054
N	0.537127	-0.728856	-0.420695
C	-0.0167339	-0.93812	0.802529
O	0.147372	-2.00466	1.36728
N	-0.759388	0.0511556	1.39937
C	-0.94688	1.244	0.775211
H	-1.18564	-0.109146	2.34013
C	-0.383631	1.46992	-0.479509
H	-1.5335	2.01926	1.25173
H	-0.530192	2.41849	-0.980651
C	6.94443	-1.34879	0.552387
O	7.0819	-2.43458	1.14274
N	5.85662	-1.19922	-0.385431
C	5.56836	-0.0640073	-1.11848
H	5.28652	-2.03156	-0.473629
N	4.49613	-0.10075	-1.96187
H	3.91063	-0.909876	-2.07261
H	4.29476	0.730707	-2.49165
N	6.28625	1.04927	-1.03595
C	7.32955	0.959145	-0.160475
C	7.70557	-0.137051	0.625832
N	8.83199	0.175205	1.39043
C	9.12682	1.42479	1.07367
N	8.23915	1.95017	0.129882
H	9.94524	1.99768	1.47584
H	8.24425	2.87287	-0.274348
