29
  This energy is -0.00422876 and Call times are: 1534
C	-0.409048	-0.310254	-1.10839
N	-1.19304	-0.741468	-2.20368
H	-2.16858	-1.03828	-2.05659
H	-0.799243	-0.763417	-3.15582
N	-0.945514	-0.2879	0.140846
C	-0.213515	0.122083	1.20992
O	-0.715808	0.133471	2.31941
N	1.08912	0.52232	1.03852
C	1.65647	0.512338	-0.196632
H	1.65265	0.837761	1.86032
C	0.915389	0.0938611	-1.30039
H	2.68387	0.829206	-0.324227
H	1.36298	0.0841576	-2.28628
C	5.3669	1.38857	-0.108431
O	4.96765	2.55856	0.0259569
N	5.7178	0.920113	-1.42851
C	6.17523	-0.344697	-1.74501
H	5.599	1.62312	-2.14771
N	6.45962	-0.614968	-3.05208
H	6.35283	0.0594844	-3.78928
H	6.7916	-1.53896	-3.27245
N	6.34665	-1.29763	-0.837217
C	6.02765	-0.904094	0.430238
C	5.55901	0.34544	0.854907
N	5.35109	0.344216	2.2361
C	5.68497	-0.872262	2.63289
N	6.10541	-1.67454	1.56785
H	5.64884	-1.23361	3.64673
H	6.41082	-2.6339	1.60196
