29
  This energy is -0.0043448 and Call times are: 3878
C	-1.11836	-0.274765	-0.407294
N	-2.29031	-0.424775	-1.18466
H	-2.32307	-0.0587809	-2.14715
H	-3.11991	-0.899255	-0.798963
N	-0.0333502	0.354054	-0.932874
C	1.1047	0.511109	-0.206918
O	2.06379	1.07784	-0.69921
N	1.17202	0.0316136	1.07837
C	0.105745	-0.601934	1.63449
H	2.047	0.152065	1.63724
C	-1.06665	-0.768771	0.899454
H	0.166006	-0.977331	2.64823
H	-1.91867	-1.27277	1.33814
C	6.98369	0.405359	1.08731
O	7.70514	0.962848	1.93292
N	6.826	-1.02891	1.1438
C	6.06383	-1.79534	0.283073
H	7.34198	-1.45905	1.90163
N	6.02967	-3.14445	0.485705
H	6.52953	-3.60229	1.22752
H	5.47226	-3.69391	-0.146688
N	5.37112	-1.27647	-0.723152
C	5.48745	0.0800393	-0.820176
C	6.22867	0.944295	-0.00472687
N	6.08476	2.26481	-0.436553
C	5.27934	2.19832	-1.48327
N	4.88552	0.885593	-1.75962
H	4.94741	3.0355	-2.07377
H	4.27918	0.566505	-2.4981
