29
  This energy is 0.000881934 and Call times are: 4828
C	0.433687	-0.185439	-1.12678
N	1.06598	-0.0569045	-2.38533
H	1.56085	0.813171	-2.62923
H	1.0388	-0.827983	-3.06858
N	0.480002	0.84246	-0.237867
C	-0.119337	0.744283	0.977856
O	-0.0643331	1.6784	1.75747
N	-0.785009	-0.405724	1.32539
C	-0.850618	-1.45236	0.460613
H	-1.24617	-0.481886	2.26025
C	-0.239704	-1.36303	-0.788955
H	-1.37711	-2.35581	0.741359
H	-0.289247	-2.19412	-1.48124
C	5.24044	0.117007	-1.04621
O	4.347	0.427282	-1.85358
N	5.83686	-1.19486	-1.13825
C	6.83497	-1.69087	-0.321613
H	5.45118	-1.75863	-1.88591
N	7.28157	-2.95939	-0.553465
H	6.92052	-3.54453	-1.28627
H	8.0082	-3.31166	0.0469173
N	7.37064	-0.989554	0.669733
C	6.83946	0.26111	0.79917
C	5.83243	0.856192	0.0290548
N	5.57304	2.15144	0.48292
C	6.40058	2.33198	1.49845
N	7.19652	1.20673	1.73304
H	6.47739	3.22593	2.09403
H	7.90174	1.08763	2.44246
