29
  This energy is 8.4027e-05 and Call times are: 3207
C	-0.0664262	-0.0338116	1.21924
N	0.22401	-0.0386221	2.6034
H	1.19839	0.0433754	2.92785
H	-0.531737	-0.123755	3.2989
N	0.943677	0.0794225	0.316049
C	0.691349	0.0866154	-1.01928
O	1.61268	0.189141	-1.80924
N	-0.599561	-0.0214822	-1.47566
C	-1.63291	-0.136221	-0.600094
H	-0.794315	-0.0160053	-2.50254
C	-1.38614	-0.144757	0.771637
H	-2.64798	-0.221044	-0.967071
H	-2.20601	-0.23595	1.473
C	8.20581	0.981833	-0.220747
O	9.04419	1.90008	-0.203667
N	8.15688	0.105177	-1.36716
C	7.28933	-0.956309	-1.53972
H	8.84196	0.335025	-2.07668
N	7.38447	-1.68104	-2.69213
H	8.05244	-1.47956	-3.4153
H	6.74799	-2.45167	-2.80861
N	6.37601	-1.29506	-0.638252
C	6.38109	-0.494642	0.46736
C	7.21287	0.598906	0.738668
N	6.89922	1.15314	1.9818
C	5.90591	0.414309	2.44679
N	5.55129	-0.606319	1.55949
H	5.4079	0.555106	3.3912
H	4.83108	-1.30109	1.67529
