29
  This energy is -0.00524647 and Call times are: 6013
C	0.795394	-0.53083	-0.760051
N	1.7098	-1.41163	-1.3832
H	1.95249	-2.30719	-0.935427
H	2.14107	-1.16863	-2.28712
N	0.236193	-0.868226	0.432572
C	-0.645084	-0.0396753	1.052
O	-1.133	-0.363568	2.1199
N	-0.983912	1.15948	0.474383
C	-0.443506	1.52772	-0.717235
H	-1.66165	1.79717	0.95025
C	0.461409	0.686047	-1.36169
H	-0.715235	2.47452	-1.16665
H	0.894546	0.975029	-2.31105
C	6.23044	0.0312526	-1.33775
O	6.63814	-0.153197	-2.49796
N	6.52488	1.28667	-0.687805
C	6.14603	1.64583	0.591505
H	7.05864	1.92248	-1.26783
N	6.51337	2.87892	1.04636
H	7.04246	3.53299	0.496809
H	6.23315	3.1309	1.97938
N	5.44653	0.846714	1.38754
C	5.14215	-0.355967	0.818351
C	5.47582	-0.815212	-0.46191
N	4.97606	-2.10392	-0.66295
C	4.35849	-2.4129	0.464819
N	4.43066	-1.37868	1.40285
H	3.85131	-3.3408	0.668633
H	4.04436	-1.36218	2.33306
