29
  This energy is -3.0981e-05 and Call times are: 4649
C	-0.824959	0.833029	0.342948
N	-1.99272	1.49795	0.783934
H	-2.83927	0.958244	1.01521
H	-2.0096	2.52408	0.878247
N	-0.821149	-0.521541	0.224566
C	0.287813	-1.18439	-0.196936
O	0.267218	-2.3982	-0.295119
N	1.4282	-0.486365	-0.511077
C	1.45873	0.868325	-0.403959
H	2.28145	-0.995553	-0.835303
C	0.327397	1.55879	0.0272712
H	2.36121	1.41199	-0.653327
H	0.346861	2.6379	0.114185
C	5.45339	-0.382098	-1.40687
O	5.45211	-0.919868	-2.5281
N	5.24227	1.04367	-1.31846
C	5.21505	1.78869	-0.155124
H	5.10741	1.48525	-2.21979
N	5.00242	3.13265	-0.259527
H	4.86509	3.60144	-1.13767
H	4.98487	3.66651	0.593252
N	5.38639	1.25427	1.04762
C	5.59052	-0.0950074	1.01838
C	5.63599	-0.938074	-0.0989743
N	5.86679	-2.25794	0.295501
C	5.95807	-2.21169	1.61393
N	5.79646	-0.912947	2.10574
H	6.13506	-3.05444	2.26062
H	5.82181	-0.609951	3.06614
