29
  This energy is -0.00549996 and Call times are: 3251
C	0.756551	0.493855	-0.822098
N	1.74332	1.26318	-1.4814
H	2.2914	1.9605	-0.957216
H	1.92397	1.13542	-2.48797
N	0.532009	0.676102	0.506532
C	-0.410216	-0.0501949	1.16345
O	-0.593362	0.130792	2.35386
N	-1.15335	-0.985559	0.485761
C	-0.954605	-1.19311	-0.842776
H	-1.87817	-1.5445	0.990399
C	0.00895214	-0.454109	-1.52691
H	-1.54415	-1.93214	-1.37051
H	0.170911	-0.615864	-2.58522
C	6.44075	0.6346	-0.430462
O	7.47352	1.30379	-0.609058
N	6.09786	-0.386415	-1.39231
C	4.99094	-1.21167	-1.33897
H	6.76315	-0.460416	-2.15224
N	4.82346	-2.12482	-2.33919
H	5.46437	-2.22395	-3.10676
H	4.01407	-2.72077	-2.29162
N	4.09295	-1.15148	-0.363499
C	4.37207	-0.199236	0.573726
C	5.45942	0.682514	0.612493
N	5.3813	1.50326	1.73997
C	4.27749	1.12681	2.36336
N	3.62354	0.0894324	1.69184
H	3.8996	1.54795	3.27965
H	2.7686	-0.3733	1.95595
