29
  This energy is -0.00425665 and Call times are: 3944
C	-0.506368	-0.768846	-0.802855
N	-1.40098	-1.47764	-1.63804
H	-2.40282	-1.23745	-1.64485
H	-1.06241	-2.23808	-2.24569
N	-0.971103	0.23156	-0.00780783
C	-0.132396	0.927845	0.803727
O	-0.571959	1.81981	1.50698
N	1.20716	0.625655	0.829964
C	1.705	-0.368428	0.0479477
H	1.85275	1.16079	1.45388
C	0.854301	-1.08927	-0.788299
H	2.76207	-0.601132	0.0738344
H	1.2462	-1.88204	-1.41308
C	7.93168	-0.371766	-0.283218
O	9.13465	-0.468448	-0.582989
N	7.2326	-1.548	0.178248
C	5.90274	-1.60776	0.54848
H	7.81803	-2.37355	0.214232
N	5.40578	-2.80977	0.961445
H	5.95932	-3.64709	1.00876
H	4.43617	-2.8431	1.22844
N	5.09763	-0.553041	0.518055
C	5.71215	0.587106	0.0873531
C	7.04516	0.753622	-0.308447
N	7.28108	2.07908	-0.680534
C	6.12246	2.69432	-0.513806
N	5.13053	1.82716	-0.0460255
H	5.93215	3.73672	-0.706003
H	4.16892	2.04486	0.160679
