29
  This energy is 0.0016147 and Call times are: 2191
C	-0.438031	0.784867	-0.827177
N	-1.19723	1.42704	-1.8329
H	-2.024	0.961097	-2.23384
H	-0.93319	2.36306	-2.17392
N	-0.801477	-0.450145	-0.38952
C	-0.0890037	-1.08863	0.575651
O	-0.433999	-2.19455	0.951548
N	1.01696	-0.48743	1.12505
C	1.40804	0.746632	0.710642
H	1.56535	-0.977935	1.8674
C	0.685058	1.41098	-0.278576
H	2.28092	1.21444	1.14822
H	0.992692	2.39414	-0.611972
C	10.5258	-0.269338	0.148675
O	11.684	-0.572436	0.484853
N	10.3045	0.280353	-1.16816
C	9.0852	0.665936	-1.69145
H	11.1534	0.368509	-1.71324
N	9.06212	1.16785	-2.96026
H	9.8856	1.26835	-3.52731
H	8.16952	1.44629	-3.33212
N	7.94719	0.56893	-1.01536
C	8.10285	0.0537702	0.23901
C	9.28591	-0.365158	0.860447
N	9.02018	-0.832144	2.14973
C	7.71333	-0.698262	2.30125
N	7.10546	-0.161251	1.16246
H	7.15363	-0.961471	3.18285
H	6.1282	0.0386135	1.02163
