29
  This energy is -0.00299132 and Call times are: 4806
C	0.666922	-0.980516	-0.293106
N	1.11038	-2.24683	-0.740393
H	0.437271	-2.92312	-1.12893
H	2.1063	-2.50559	-0.682884
N	-0.650984	-0.65647	-0.376812
C	-1.10269	0.553505	0.0459798
O	-2.28783	0.821077	-0.0390978
N	-0.224195	1.47141	0.567629
C	1.09982	1.17994	0.665724
H	-0.570945	2.40219	0.89297
C	1.5745	-0.0578094	0.235307
H	1.78653	1.90842	1.078
H	2.62833	-0.294591	0.311421
C	5.39152	0.358692	0.990846
O	4.61653	0.876372	1.8141
N	5.28327	-1.05702	0.727743
C	6.06446	-1.78006	-0.153228
H	4.553	-1.5094	1.26407
N	5.82187	-3.11737	-0.27605
H	5.10563	-3.59644	0.240914
H	6.39641	-3.6352	-0.919713
N	7.03205	-1.2309	-0.876929
C	7.17553	0.109675	-0.663962
C	6.44071	0.930847	0.200345
N	6.89808	2.24855	0.126858
C	7.88133	2.22232	-0.757029
N	8.09122	0.938895	-1.27034
H	8.46962	3.0696	-1.06654
H	8.77448	0.652136	-1.95279
