29
  This energy is -0.0010004 and Call times are: 4990
C	0.511792	0.10816	1.10385
N	0.886648	0.531975	2.40004
H	0.46384	1.37706	2.8105
H	1.58309	0.00299398	2.94527
N	-0.408817	0.818677	0.399196
C	-0.786148	0.43274	-0.848003
O	-1.61269	1.08533	-1.45985
N	-0.236259	-0.690387	-1.416
C	0.686701	-1.42372	-0.739274
H	-0.526034	-0.987765	-2.37518
C	1.08133	-1.03749	0.540456
H	1.11594	-2.30794	-1.19331
H	1.81622	-1.61843	1.08347
C	4.90723	-1.35758	0.2973
O	4.59453	-2.56053	0.335651
N	4.69242	-0.54476	1.47134
C	4.98449	0.80046	1.59071
H	4.29011	-1.05832	2.24592
N	4.71377	1.41202	2.78026
H	4.31518	0.931683	3.56776
H	4.92954	2.39186	2.85706
N	5.51205	1.51416	0.603862
C	5.73478	0.789853	-0.531406
C	5.47646	-0.568391	-0.75446
N	5.84776	-0.928388	-2.05195
C	6.31668	0.182013	-2.59588
N	6.26977	1.26132	-1.7084
H	6.69643	0.277508	-3.59908
H	6.56474	2.20994	-1.87546
