29
  This energy is -0.000197669 and Call times are: 5703
C	-0.307903	0.559364	-1.04135
N	-0.953756	0.977237	-2.22816
H	-1.83914	0.537222	-2.51779
H	-0.548016	1.72243	-2.81314
N	-0.858058	-0.425344	-0.28203
C	-0.25755	-0.845018	0.862563
O	-0.769404	-1.72874	1.52622
N	0.923367	-0.273416	1.26892
C	1.50054	0.713307	0.533502
H	1.38573	-0.595717	2.14913
C	0.893743	1.1518	-0.642138
H	2.43153	1.1593	0.859961
H	1.3497	1.93752	-1.23134
C	4.83088	-1.3239	-0.488387
O	4.52604	-2.51349	-0.683995
N	4.91964	-0.432742	-1.62115
C	5.24469	0.909356	-1.57345
H	4.71508	-0.885238	-2.50375
N	5.28185	1.602	-2.7487
H	5.08431	1.18339	-3.6406
H	5.52007	2.5786	-2.7035
N	5.51999	1.54484	-0.441228
C	5.44985	0.74412	0.661949
C	5.13154	-0.618371	0.721942
N	5.16813	-1.06963	2.04329
C	5.49945	-0.00869237	2.75979
N	5.68299	1.1257	1.96343
H	5.62154	0.0128484	3.82955
H	5.93691	2.05376	2.26183
