29
  This energy is 4.7544e-05 and Call times are: 3636
C	-0.745749	0.529771	-0.809513
N	-1.73403	1.317	-1.445
H	-2.31665	1.96176	-0.891611
H	-1.88145	1.25466	-2.46309
N	-0.565381	0.625328	0.534819
C	0.377245	-0.119982	1.16948
O	0.520347	-0.0171665	2.37462
N	1.16587	-0.986513	0.452821
C	1.01199	-1.10664	-0.892348
H	1.89104	-1.56001	0.940327
C	0.0484791	-0.347336	-1.55395
H	1.63723	-1.79177	-1.45083
H	-0.0778485	-0.439563	-2.62537
C	6.45738	-0.196561	1.39093
O	6.34601	-0.401351	2.6124
N	5.27097	0.103668	0.624447
C	5.22491	0.354562	-0.733527
H	4.42642	0.118888	1.18308
N	4.01014	0.621431	-1.29518
H	3.15399	0.64423	-0.769595
H	3.98701	0.802303	-2.28477
N	6.30452	0.345754	-1.50549
C	7.45525	0.0659239	-0.826828
C	7.60963	-0.201083	0.539255
N	8.95261	-0.438867	0.840583
C	9.58996	-0.318692	-0.311841
N	8.72053	-0.0107016	-1.36254
H	10.6503	-0.437539	-0.457852
H	8.95212	0.132162	-2.33247
