29
  This energy is 0.00325097 and Call times are: 4010
C	0.348652	-1.15424	0.195665
N	0.868918	-2.3497	0.743802
H	1.29923	-2.34529	1.67987
H	0.823567	-3.23358	0.215752
N	0.41726	0.0025753	0.906978
C	-0.075172	1.16462	0.403002
O	-0.00229517	2.18829	1.05888
N	-0.653289	1.18344	-0.842729
C	-0.738216	0.0450105	-1.58053
H	-1.03222	2.07683	-1.23092
C	-0.236588	-1.15262	-1.0739
H	-1.19527	0.0673569	-2.56177
H	-0.30193	-2.06207	-1.65788
C	6.01207	1.02635	-0.775126
O	5.23442	1.7954	-1.36687
N	7.43376	1.25484	-0.883736
C	8.42457	0.495991	-0.290764
H	7.66802	2.05597	-1.45722
N	9.72298	0.85873	-0.502583
H	9.98915	1.64735	-1.06561
H	10.4372	0.299543	-0.0669196
N	8.16591	-0.561426	0.468529
C	6.83254	-0.820633	0.602753
C	5.75554	-0.118328	0.0476417
N	4.54516	-0.704257	0.425259
C	4.8832	-1.73126	1.18666
N	6.26949	-1.84652	1.32685
H	4.19795	-2.41592	1.65721
H	6.78056	-2.53833	1.85127
