29
  This energy is 0.000202234 and Call times are: 6661
C	-0.664442	-0.224247	1.00017
N	-1.68619	-0.283761	1.97625
H	-2.5882	0.18555	1.81028
H	-1.54047	-0.794455	2.85948
N	-0.874666	0.454202	-0.159315
C	0.09068	0.526477	-1.1131
O	-0.120872	1.14005	-2.14372
N	1.30124	-0.0911309	-0.91432
C	1.54461	-0.777694	0.233284
H	2.04411	-0.0359397	-1.64748
C	0.562048	-0.858568	1.21849
H	2.50125	-1.26207	0.383131
H	0.751233	-1.40432	2.13434
C	8.89186	1.09537	-0.879818
O	9.29138	1.86264	-1.77313
N	8.34443	1.66148	0.330562
C	7.86014	0.950117	1.41157
H	8.3393	2.67418	0.332438
N	7.37775	1.65297	2.47723
H	7.35832	2.65709	2.51082
H	7.02782	1.12588	3.2597
N	7.8463	-0.376365	1.45418
C	8.35498	-0.961219	0.330674
C	8.86753	-0.3357	-0.81271
N	9.28973	-1.2892	-1.74197
C	9.03879	-2.45695	-1.17442
N	8.46725	-2.31209	0.0932909
H	9.23854	-3.42176	-1.60917
H	8.184	-3.04073	0.728626
