29
  This energy is 0.000560379 and Call times are: 5924
C	0.77164	0.465658	0.824526
N	1.60874	0.678616	1.94443
H	1.70852	-0.0534725	2.66241
H	2.12529	1.56366	2.05401
N	0.0978186	-0.708435	0.696615
C	-0.712718	-0.937922	-0.369779
O	-1.30608	-1.9975	-0.462632
N	-0.861603	0.023134	-1.33964
C	-0.202633	1.20803	-1.24284
H	-1.48482	-0.152733	-2.16006
C	0.631317	1.45451	-0.153628
H	-0.324799	1.96101	-2.01117
H	1.15834	2.39686	-0.0721279
C	9.41762	0.798488	-0.949022
O	10.1209	1.27767	-1.85571
N	8.82048	1.69255	0.0149626
C	8.01752	1.32137	1.0764
H	9.04333	2.66651	-0.150314
N	7.53742	2.30494	1.89152
H	7.73939	3.27984	1.75535
H	6.95406	2.02445	2.66194
N	7.69847	0.0586985	1.33219
C	8.2399	-0.828314	0.447247
C	9.06092	-0.557649	-0.654559
N	9.40434	-1.74275	-1.30919
C	8.80707	-2.70108	-0.621003
N	8.08247	-2.19535	0.462473
H	8.85305	-3.75413	-0.841764
H	7.54193	-2.71203	1.1375
