29
  This energy is 0.00128486 and Call times are: 7381
C	0.476458	-0.0532167	-1.12351
N	0.774396	0.145886	-2.49166
H	0.242322	0.835413	-3.04199
H	1.52294	-0.393663	-2.95068
N	-0.514634	0.667829	-0.534675
C	-0.820571	0.495511	0.778161
O	-1.71255	1.15303	1.28358
N	-0.125096	-0.417929	1.53206
C	0.871635	-1.15532	0.974954
H	-0.359883	-0.550939	2.54182
C	1.19417	-0.987137	-0.370519
H	1.41562	-1.87354	1.57535
H	1.98735	-1.57223	-0.818781
C	8.53016	-0.800267	-0.937222
O	9.37393	-1.42297	-1.60554
N	7.14737	-0.839375	-1.3514
C	6.09393	-0.205209	-0.721118
H	6.99405	-1.39601	-2.18341
N	4.84617	-0.351795	-1.25399
H	4.66009	-0.896614	-2.07758
H	4.08578	0.114309	-0.788054
N	6.24629	0.533868	0.370722
C	7.53885	0.603018	0.803806
C	8.67192	0.00192064	0.24153
N	9.81091	0.317176	0.985998
C	9.37649	1.08701	1.96954
N	7.99511	1.29247	1.90393
H	9.98689	1.51986	2.74402
H	7.42242	1.83606	2.52951
