29
  This energy is -0.00101266 and Call times are: 6057
C	0.593447	-1.02057	-0.313648
N	1.22129	-2.28785	-0.321788
H	1.25487	-2.85411	0.538229
H	1.64979	-2.65679	-1.18341
N	0.0333474	-0.549992	0.832537
C	-0.575839	0.664315	0.866889
O	-1.07048	1.06464	1.90538
N	-0.632996	1.43719	-0.267047
C	-0.0832399	0.997093	-1.42966
H	-1.10138	2.3712	-0.241309
C	0.544117	-0.246617	-1.47678
H	-0.132071	1.61175	-2.31963
H	0.983509	-0.601493	-2.40058
C	6.70925	0.549658	-0.999301
O	7.49477	0.803028	-1.92941
N	6.28737	1.6245	-0.132172
C	5.42367	1.50966	0.940214
H	6.69114	2.51993	-0.378641
N	5.13435	2.6364	1.6537
H	5.51767	3.53934	1.43568
H	4.50483	2.54231	2.43305
N	4.87042	0.358262	1.30043
C	5.23855	-0.69198	0.510157
C	6.10116	-0.682519	-0.593077
N	6.21741	-1.96595	-1.13179
C	5.44645	-2.72784	-0.374246
N	4.82541	-1.99785	0.643672
H	5.29353	-3.78649	-0.499231
H	4.19373	-2.33969	1.35002
