29
  This energy is -0.00206206 and Call times are: 1254
C	1.22095	0.00367821	0.03696
N	2.58662	0.371333	0.029558
H	2.85612	1.35794	-0.0945043
H	3.32319	-0.33977	0.147529
N	0.262821	0.955632	-0.120062
C	-1.05623	0.628627	-0.116686
O	-1.89635	1.49885	-0.259118
N	-1.43976	-0.68001	0.047005
C	-0.507903	-1.65663	0.206529
H	-2.45407	-0.932183	0.0497085
C	0.847795	-1.33308	0.204733
H	-0.817581	-2.68611	0.335048
H	1.59381	-2.10756	0.331449
C	6.24825	0.294668	1.42851
O	6.18738	0.757445	2.5811
N	6.60706	-1.09309	1.25366
C	6.71809	-1.75597	0.0464188
H	6.78141	-1.57485	2.12721
N	7.06947	-3.07443	0.0690947
H	7.24916	-3.58149	0.917839
H	7.1482	-3.54814	-0.815182
N	6.49924	-1.16677	-1.12256
C	6.15622	0.149695	-1.01149
C	6.01682	0.91084	0.155785
N	5.65199	2.22206	-0.158128
C	5.57383	2.2505	-1.47791
N	5.87262	1.00935	-2.048
H	5.31408	3.10984	-2.07273
H	5.88458	0.767011	-3.02572
