29
  This energy is -0.00895295 and Call times are: 3163
C	0.448584	0.748981	0.854347
N	1.25679	1.38573	1.82472
H	2.1868	1.00596	2.05336
H	0.926108	2.232	2.31113
N	0.901473	-0.366716	0.222681
C	0.144539	-0.997267	-0.713421
O	0.571594	-1.99518	-1.26586
N	-1.09855	-0.509617	-1.03489
C	-1.58183	0.603556	-0.42261
H	-1.68121	-0.99409	-1.75476
C	-0.814427	1.25855	0.538997
H	-2.56265	0.982274	-0.681068
H	-1.19511	2.14564	1.02947
C	6.7099	-0.0650212	1.44833
O	6.626	-0.184067	2.68329
N	7.96925	0.344358	0.872446
C	8.22569	0.521964	-0.473606
H	8.69334	0.500987	1.5629
N	9.48013	0.914263	-0.840791
H	10.2205	1.07797	-0.181438
H	9.65676	1.04138	-1.82323
N	7.30921	0.328592	-1.41394
C	6.09773	-0.0603327	-0.919853
C	5.73604	-0.267918	0.417082
N	4.39901	-0.662432	0.504578
C	3.96679	-0.691666	-0.744846
N	4.96604	-0.332035	-1.65419
H	2.97104	-0.95618	-1.05832
H	4.89507	-0.275481	-2.65747
