29
  This energy is -0.00272804 and Call times are: 3812
C	-0.112802	-1.03179	-0.644043
N	-0.520872	-2.0399	-1.54817
H	-1.31022	-1.87186	-2.18857
H	-0.0357689	-2.94876	-1.57618
N	-0.764687	0.16128	-0.621261
C	-0.392339	1.14626	0.237805
O	-0.991468	2.20666	0.23982
N	0.656948	0.945401	1.10098
C	1.33033	-0.235334	1.10449
H	0.943835	1.70254	1.76193
C	0.95735	-1.25272	0.227892
H	2.15649	-0.38661	1.78772
H	1.49072	-2.19502	0.226979
C	6.03504	-0.972705	-1.02378
O	5.85234	-1.94721	-1.77431
N	5.4093	0.286372	-1.35296
C	5.51231	1.45735	-0.626757
H	4.85768	0.249755	-2.20147
N	4.8505	2.55801	-1.08815
H	4.29519	2.55529	-1.92563
H	4.93217	3.40598	-0.552588
N	6.22279	1.55303	0.490208
C	6.83618	0.386542	0.845371
C	6.7961	-0.847123	0.183728
N	7.55865	-1.79394	0.871469
C	8.04496	-1.14888	1.91843
N	7.63335	0.186925	1.94921
H	8.68403	-1.57208	2.67489
H	7.86296	0.88696	2.63626
