29
  This energy is -0.00168186 and Call times are: 7998
C	0.181965	1.19029	0.205452
N	0.0263823	2.56576	0.495495
H	-0.907256	2.94812	0.704148
H	0.840805	3.19728	0.501272
N	-0.904043	0.372078	0.202449
C	-0.781531	-0.953035	-0.0730414
O	-1.76887	-1.66616	-0.0697766
N	0.45287	-1.48558	-0.354235
C	1.55925	-0.695974	-0.359729
H	0.547788	-2.50464	-0.566188
C	1.44572	0.66444	-0.0786657
H	2.52911	-1.12267	-0.582281
H	2.32417	1.29747	-0.081848
C	7.68159	-0.919906	-0.0273954
O	8.71955	-1.58603	0.131523
N	6.79314	-1.26375	-1.11258
C	5.60712	-0.626199	-1.42251
H	7.11778	-2.0499	-1.66225
N	4.89112	-1.08741	-2.4888
H	5.18491	-1.86443	-3.05421
H	4.02916	-0.616161	-2.70671
N	5.14181	0.40697	-0.73142
C	5.94758	0.772389	0.307939
C	7.16097	0.196463	0.704545
N	7.67566	0.863164	1.81879
C	6.79702	1.81458	2.08625
N	5.72206	1.80231	1.19236
H	6.87071	2.52927	2.88847
H	4.925	2.41818	1.17839
