29
  This energy is 0.00240133 and Call times are: 2301
C	-0.889346	-0.562935	0.619901
N	-1.78397	-1.0145	1.6179
H	-1.70872	-0.655887	2.58078
H	-2.51699	-1.70352	1.39414
N	0.0715539	0.346568	0.933537
C	0.94338	0.796485	-0.00684722
O	1.79571	1.61138	0.297919
N	0.86262	0.332826	-1.29716
C	-0.0859095	-0.576607	-1.64475
H	1.53283	0.678457	-2.0209
C	-0.985409	-1.04517	-0.688735
H	-0.143628	-0.937677	-2.66383
H	-1.74274	-1.76962	-0.960822
C	8.84791	1.04723	-0.163083
O	7.84325	1.77475	-0.250855
N	10.1488	1.62434	-0.407752
C	11.3564	0.955275	-0.350706
H	10.113	2.61013	-0.636882
N	12.4938	1.66228	-0.612722
H	12.493	2.64042	-0.842923
H	13.3681	1.166	-0.569155
N	11.4526	-0.334947	-0.0547007
C	10.2472	-0.928494	0.185584
C	8.9748	-0.344297	0.154118
N	7.99561	-1.29238	0.459509
C	8.65933	-2.41678	0.669056
N	10.0386	-2.24846	0.514161
H	8.2206	-3.36526	0.92917
H	10.7599	-2.944	0.617844
