29
  This energy is 0.00500858 and Call times are: 6145
C	-0.688279	0.934166	0.381725
N	-1.43393	1.85559	1.15324
H	-1.52027	1.727	2.17178
H	-1.89662	2.66142	0.707476
N	-0.0845898	-0.123167	0.987115
C	0.637479	-1.02269	0.26857
O	1.16919	-1.96185	0.833062
N	0.766639	-0.872123	-1.0905
C	0.176128	0.173453	-1.72741
H	1.32185	-1.56358	-1.64372
C	-0.566843	1.10222	-1.00078
H	0.282221	0.285794	-2.79902
H	-1.0391	1.93677	-1.50368
C	6.77649	-0.423601	0.571141
O	5.81561	-0.838492	1.24264
N	6.53202	0.0661954	-0.765095
C	7.4857	0.558475	-1.63534
H	5.5572	0.0217883	-1.03587
N	7.0736	0.98013	-2.86608
H	6.11491	0.949656	-3.16566
H	7.77566	1.33644	-3.49274
N	8.77376	0.63608	-1.32483
C	9.05787	0.183801	-0.0687261
C	8.17137	-0.331001	0.885425
N	8.85876	-0.68359	2.04909
C	10.1244	-0.389644	1.80312
N	10.2999	0.143428	0.522586
H	10.9455	-0.531484	2.48529
H	11.1594	0.44655	0.093596
