29
  This energy is -0.00389938 and Call times are: 6462
C	0.667661	0.807146	0.628374
N	1.69036	1.66621	1.09352
H	2.5859	1.72571	0.587684
H	1.55176	2.23901	1.939
N	0.868377	0.0588512	-0.48906
C	-0.0980816	-0.774275	-0.956703
O	0.104864	-1.43467	-1.95974
N	-1.3001	-0.870489	-0.299192
C	-1.53385	-0.136609	0.820796
H	-2.04382	-1.51105	-0.658334
C	-0.550045	0.72117	1.30963
H	-2.48378	-0.217573	1.33393
H	-0.73158	1.3078	2.20144
C	7.12006	-0.51844	-1.04961
O	7.90544	-1.12921	-1.79559
N	6.5138	0.702148	-1.52689
C	5.62532	1.49439	-0.825379
H	6.80098	0.951648	-2.46543
N	5.15018	2.61913	-1.43492
H	5.41476	2.89488	-2.36429
H	4.50413	3.18968	-0.915661
N	5.22034	1.20783	0.405651
C	5.76645	0.060365	0.903801
C	6.66986	-0.808674	0.279351
N	6.98729	-1.87279	1.1266
C	6.29462	-1.65122	2.23107
N	5.53199	-0.482477	2.14644
H	6.29546	-2.27599	3.10823
H	4.92144	-0.0928465	2.8466
