29
  This energy is -0.00173539 and Call times are: 5769
C	0.753005	-0.026668	-0.961448
N	1.87404	-0.145116	-1.81556
H	2.79622	-0.391262	-1.42774
H	1.78129	0.0126488	-2.82978
N	0.894307	-0.238503	0.374236
C	-0.16691	-0.130943	1.2163
O	-0.0157764	-0.325358	2.4091
N	-1.40608	0.196157	0.722473
C	-1.58245	0.414561	-0.607484
H	-2.22268	0.279032	1.36956
C	-0.501359	0.307073	-1.48058
H	-2.56217	0.672058	-0.98968
H	-0.636899	0.480127	-2.54081
C	5.90357	0.160064	-1.39247
O	6.35419	0.0957921	-2.54969
N	5.10433	1.30334	-1.0192
C	4.53352	1.52393	0.219625
H	4.98378	1.97056	-1.77143
N	3.80618	2.66505	0.396182
H	3.66739	3.34682	-0.328856
H	3.395	2.81682	1.30196
N	4.6639	0.678615	1.23451
C	5.41306	-0.421588	0.932214
C	6.03155	-0.738409	-0.28368
N	6.70607	-1.95745	-0.184215
C	6.50001	-2.36402	1.05715
N	5.71568	-1.4613	1.78147
H	6.87678	-3.27548	1.48961
H	5.41689	-1.53588	2.74061
