29
  This energy is -0.00220477 and Call times are: 3053
C	-0.625697	-0.487211	-0.929106
N	-1.62506	-1.04906	-1.75727
H	-2.57532	-1.20247	-1.39001
H	-1.41486	-1.3098	-2.73193
N	-0.921345	-0.149256	0.354354
C	0.0207559	0.392109	1.17056
O	-0.267744	0.686801	2.31657
N	1.29449	0.605925	0.703331
C	1.62387	0.2796	-0.574407
H	2.01953	1.02226	1.33056
C	0.665912	-0.27623	-1.42057
H	2.62994	0.450974	-0.93589
H	0.923528	-0.537822	-2.4392
C	5.31461	-1.14339	0.450894
O	4.65953	-2.1872	0.617197
N	5.53807	-0.274135	1.58212
C	6.24099	0.915296	1.5643
H	5.12031	-0.61629	2.43884
N	6.35285	1.61127	2.73282
H	5.95066	1.29983	3.59943
H	6.86616	2.47642	2.70941
N	6.80547	1.40295	0.466521
C	6.62232	0.616288	-0.63379
C	5.93147	-0.59872	-0.722084
N	5.97459	-1.08996	-2.0289
C	6.67188	-0.195844	-2.70939
N	7.09114	0.86668	-1.90316
H	6.90636	-0.249567	-3.75909
H	7.63253	1.67118	-2.17608
