29
  This energy is 0.000215867 and Call times are: 7645
C	-0.477171	0.42563	-1.0408
N	-0.807297	1.2052	-2.17373
H	-0.360565	2.12215	-2.31879
H	-1.49464	0.866451	-2.86289
N	0.432041	0.888754	-0.142052
C	0.766633	0.159252	0.954628
O	1.58376	0.594982	1.74572
N	0.184273	-1.06598	1.16929
C	-0.72844	-1.5588	0.290843
H	0.441172	-1.62755	2.01254
C	-1.07935	-0.819484	-0.837383
H	-1.18345	-2.52541	0.466512
H	-1.80591	-1.20786	-1.54001
C	14.1134	-0.678202	-0.109752
O	13.0758	-1.35573	-0.00546772
N	14.2676	0.186775	-1.25571
C	15.3539	0.999492	-1.51775
H	13.4791	0.155105	-1.89046
N	15.3304	1.75394	-2.65467
H	14.5643	1.74575	-3.30479
H	16.1263	2.34207	-2.83685
N	16.4088	1.07412	-0.715742
C	16.3119	0.272886	0.38504
C	15.2618	-0.582376	0.741633
N	15.5478	-1.22925	1.94609
C	16.7372	-0.776613	2.3054
N	17.248	0.144022	1.38548
H	17.2754	-1.06236	3.19339
H	18.1285	0.631745	1.42574
