29
  This energy is -0.00795927 and Call times are: 3075
C	0.651885	-0.913283	0.482772
N	1.16162	-2.1781	0.857821
H	0.710516	-3.03942	0.517156
H	1.98543	-2.25169	1.47268
N	-0.435954	-0.835599	-0.329301
C	-0.945255	0.36724	-0.704294
O	-1.92054	0.411587	-1.43247
N	-0.360915	1.52913	-0.262727
C	0.727734	1.48756	0.550112
H	-0.752114	2.45456	-0.55077
C	1.25875	0.259686	0.941215
H	1.18315	2.40753	0.894328
H	2.12583	0.221474	1.58861
C	4.43491	-1.1562	-0.642135
O	3.87363	-2.21463	-0.975351
N	4.90194	-0.261044	-1.6745
C	5.54147	0.946897	-1.47191
H	4.71748	-0.598937	-2.61118
N	5.91553	1.66613	-2.56969
H	5.74756	1.35958	-3.5118
H	6.38104	2.54413	-2.4117
N	5.80418	1.43008	-0.263987
C	5.38172	0.618866	0.74919
C	4.72837	-0.616056	0.652152
N	4.4646	-1.1291	1.92422
C	4.94572	-0.228545	2.76461
N	5.51683	0.859308	2.09742
H	4.91728	-0.294665	3.83912
H	5.94958	1.67333	2.5035
