29
  This energy is 0.00170235 and Call times are: 6079
C	-1.01197	-0.683504	-0.0290762
N	-2.09662	-1.53236	0.292224
H	-2.19181	-1.91198	1.24524
H	-2.79988	-1.77918	-0.419566
N	-0.093707	-0.368659	0.923055
C	0.957576	0.444701	0.640071
O	1.76735	0.712538	1.50951
N	1.10549	0.962751	-0.623323
C	0.205807	0.668324	-1.59876
H	1.91379	1.58838	-0.841624
C	-0.876313	-0.164732	-1.32011
H	0.328773	1.08031	-2.59243
H	-1.5956	-0.402155	-2.09384
C	5.14433	-0.150386	-0.726741
O	4.00277	-0.388872	-1.15835
N	6.07012	0.570667	-1.56829
C	7.36758	0.913066	-1.23886
H	5.68029	0.822939	-2.46827
N	8.10359	1.59821	-2.16147
H	7.74708	1.86362	-3.0627
H	9.04742	1.84248	-1.91234
N	7.92083	0.604492	-0.0725641
C	7.08444	-0.0798238	0.761241
C	5.7612	-0.473266	0.525569
N	5.2511	-1.15537	1.63258
C	6.23943	-1.17272	2.511
N	7.38233	-0.528662	2.02758
H	6.20137	-1.62063	3.48961
H	8.26497	-0.404577	2.497
