29
  This energy is 0.000551353 and Call times are: 7513
C	-0.949514	0.551991	0.534638
N	-2.03981	1.39713	0.846491
H	-2.32596	2.13651	0.188581
H	-2.55723	1.28328	1.73049
N	-0.278583	0.716935	-0.636488
C	0.772319	-0.0817493	-0.959814
O	1.35785	0.0851196	-2.01466
N	1.17217	-1.07415	-0.098612
C	0.523591	-1.26638	1.08036
H	1.98034	-1.68878	-0.346681
C	-0.555534	-0.453353	1.42254
H	0.844344	-2.05066	1.75435
H	-1.07534	-0.602624	2.36059
C	11.3973	-0.362977	0.889711
O	12.4644	-0.562122	1.49635
N	10.1715	-0.882907	1.44843
C	8.90994	-0.748711	0.901026
H	10.308	-1.38107	2.31952
N	7.85886	-1.30728	1.56854
H	7.96001	-1.80752	2.43416
H	6.94434	-1.20455	1.16155
N	8.68249	-0.105007	-0.237163
C	9.81238	0.406586	-0.806988
C	11.1292	0.327172	-0.337024
N	11.9993	0.981593	-1.2121
C	11.2283	1.44249	-2.1826
N	9.88303	1.11823	-1.98273
H	11.5644	2.0036	-3.03813
H	9.09915	1.34971	-2.57158
