29
  This energy is -0.000784595 and Call times are: 5637
C	0.19911	-1.18972	0.192403
N	0.747827	-2.44151	0.556014
H	1.67582	-2.49003	1.00086
H	0.228251	-3.31415	0.380925
N	0.899117	-0.0487354	0.431202
C	0.394332	1.16642	0.0914698
O	1.03997	2.1746	0.315368
N	-0.840703	1.25619	-0.502708
C	-1.56705	0.135472	-0.755687
H	-1.22952	2.19046	-0.764235
C	-1.05947	-1.11617	-0.411635
H	-2.53989	0.213861	-1.22436
H	-1.63435	-2.01178	-0.611157
C	9.60244	-1.08877	0.938488
O	9.39551	-2.15033	1.55218
N	9.67449	0.144668	1.6859
C	9.89672	1.40157	1.15677
H	9.54373	0.0175905	2.68206
N	9.93329	2.46133	2.01577
H	9.8075	2.36958	3.0085
H	10.0952	3.37251	1.62069
N	10.0737	1.6167	-0.140911
C	10.0142	0.479282	-0.893113
C	9.79574	-0.833897	-0.458196
N	9.80781	-1.71463	-1.54222
C	10.0273	-0.953465	-2.60109
N	10.1607	0.395535	-2.25887
H	10.1	-1.29939	-3.61834
H	10.3315	1.17381	-2.87527
