29
  This energy is -0.000421013 and Call times are: 9288
C	-0.28518	1.18272	0.109328
N	-0.89406	2.45557	0.0125438
H	-1.74309	2.58094	-0.557406
H	-0.497292	3.26727	0.508377
N	-0.822811	0.123151	-0.55185
C	-0.25712	-1.11012	-0.475307
O	-0.756864	-2.04408	-1.07644
N	0.875092	-1.30166	0.278237
C	1.43847	-0.264163	0.951881
H	1.31066	-2.24992	0.337537
C	0.867059	1.00511	0.880758
H	2.331	-0.422557	1.54394
H	1.31221	1.83468	1.41561
C	7.83818	-0.432989	1.39004
O	8.01007	-0.59736	2.6106
N	7.22337	-1.49206	0.624826
C	6.96372	-1.46648	-0.732043
H	6.98134	-2.30133	1.18348
N	6.37415	-2.56217	-1.29258
H	6.12154	-3.38049	-0.766934
H	6.18966	-2.53402	-2.28137
N	7.26261	-0.429022	-1.50399
C	7.84773	0.601377	-0.826506
C	8.15238	0.675637	0.538404
N	8.74774	1.90294	0.838749
C	8.80063	2.55036	-0.313112
N	8.26337	1.79877	-1.3625
H	9.20279	3.53857	-0.459595
H	8.18482	2.06168	-2.33178
