29
  This energy is -0.00481104 and Call times are: 1839
C	0.809155	0.915018	-0.0109048
N	1.68245	1.96171	-0.387779
H	1.77498	2.22665	-1.37907
H	2.23289	2.46817	0.321203
N	0.090763	0.257982	-0.960171
C	-0.755178	-0.751195	-0.62435
O	-1.3882	-1.32503	-1.49233
N	-0.895132	-1.12217	0.690643
C	-0.192009	-0.486403	1.66481
H	-1.54558	-1.89824	0.9496
C	0.678536	0.550011	1.33223
H	-0.307383	-0.784213	2.69933
H	1.24079	1.05945	2.10472
C	5.24526	1.26057	0.647478
O	5.46322	2.23375	1.39028
N	5.56588	1.37069	-0.756183
C	5.38541	0.386226	-1.70877
H	5.95487	2.27095	-1.00875
N	5.74579	0.665232	-2.99509
H	6.13424	1.54753	-3.27866
H	5.60998	-0.0579498	-3.68146
N	4.87995	-0.807748	-1.42504
C	4.55929	-0.962656	-0.107373
C	4.70165	-0.0343646	0.931529
N	4.25652	-0.58061	2.13752
C	3.85682	-1.80406	1.83394
N	4.02066	-2.08734	0.474662
H	3.44937	-2.52103	2.52653
H	3.79529	-2.94217	-0.00832639
