29
  This energy is 0.000849394 and Call times are: 5549
C	-0.485668	-0.354302	-1.06335
N	-1.25897	-0.972781	-2.07317
H	-1.99002	-1.65351	-1.82101
H	-1.10054	-0.750538	-3.06697
N	-0.708835	-0.659829	0.242694
C	0.0202914	-0.0796396	1.23193
O	-0.197877	-0.369234	2.39465
N	1.00032	0.83074	0.920194
C	1.2495	1.15892	-0.375103
H	1.56144	1.27734	1.68054
C	0.50805	0.570267	-1.39801
H	2.02362	1.87739	-0.613388
H	0.702877	0.828489	-2.43134
C	8.67167	-0.783204	-0.146867
O	9.7103	-1.37554	-0.488533
N	8.2035	-0.926389	1.21163
C	7.07363	-0.337481	1.74618
H	8.79463	-1.52223	1.77829
N	6.78091	-0.58424	3.05605
H	7.34609	-1.17001	3.64528
H	5.9558	-0.151238	3.43585
N	6.26964	0.45027	1.04289
C	6.66941	0.617901	-0.251387
C	7.7903	0.069881	-0.887459
N	7.84629	0.485476	-2.21978
C	6.78849	1.26225	-2.38229
N	6.03608	1.3761	-1.20942
H	6.51126	1.762	-3.29506
H	5.19035	1.90498	-1.06857
