29
  This energy is -0.00707246 and Call times are: 1408
C	0.835495	-0.139004	-0.880191
N	1.55186	-0.116015	-2.09943
H	1.14471	0.337204	-2.93023
H	2.48396	-0.550026	-2.16985
N	-0.393121	0.438825	-0.805983
C	-1.1019	0.430413	0.353495
O	-2.2005	0.954521	0.395633
N	-0.579771	-0.167786	1.47419
C	0.645618	-0.754696	1.43481
H	-1.12437	-0.174598	2.36626
C	1.38161	-0.752206	0.251201
H	1.0509	-1.22437	2.32215
H	2.35819	-1.21845	0.214911
C	6.05813	-0.14453	1.21635
O	5.20291	-0.243492	2.11365
N	7.45467	-0.231505	1.57314
C	8.52173	-0.141639	0.699953
H	7.60683	-0.371324	2.56455
N	9.78143	-0.246027	1.21436
H	9.96673	-0.384942	2.19217
H	10.5518	-0.178782	0.570482
N	8.37139	0.0409371	-0.606043
C	7.06618	0.130129	-0.995314
C	5.91882	0.0523987	-0.196043
N	4.76983	0.190546	-0.978136
C	5.21233	0.347347	-2.2144
N	6.60862	0.31804	-2.2795
H	4.59787	0.483622	-3.08825
H	7.1897	0.413788	-3.0968
