29
  This energy is -0.0015668 and Call times are: 5946
C	0.53011	0.942023	0.568933
N	1.32018	1.76193	1.40786
H	1.9717	1.33598	2.08276
H	1.25321	2.78892	1.3536
N	0.631874	-0.4112	0.6545
C	-0.115992	-1.22119	-0.14013
O	-0.00749263	-2.43059	-0.0453195
N	-0.991494	-0.67637	-1.04737
C	-1.118	0.672389	-1.15889
H	-1.56696	-1.29877	-1.65883
C	-0.356156	1.51295	-0.349155
H	-1.81019	1.09483	-1.87628
H	-0.453442	2.58798	-0.43432
C	6.34494	0.0354331	-1.30273
O	5.77327	0.291568	-2.37694
N	6.68298	-1.33629	-1.00391
C	7.31573	-1.7848	0.139608
H	6.40884	-1.98418	-1.73237
N	7.55743	-3.12289	0.255513
H	7.29855	-3.7918	-0.448265
H	8.0182	-3.43964	1.09211
N	7.69337	-0.973822	1.12005
C	7.39544	0.337396	0.885501
C	6.76083	0.892724	-0.232617
N	6.64242	2.27695	-0.0882871
C	7.19028	2.54839	1.08428
N	7.66603	1.39765	1.72003
H	7.27565	3.52706	1.5255
H	8.12216	1.33227	2.61584
