29
  This energy is 0.0117568 and Call times are: 4433
C	-0.62891	-0.00261195	1.04717
N	-1.03547	-0.12747	2.39602
H	-0.369242	-0.458741	3.10863
H	-1.99741	0.110245	2.67937
N	0.6444	-0.320824	0.691768
C	1.06003	-0.209658	-0.597311
O	2.20552	-0.500578	-0.891594
N	0.18982	0.229705	-1.56484
C	-1.09004	0.556222	-1.24398
H	0.508847	0.315439	-2.55645
C	-1.52745	0.446165	0.0747906
H	-1.77049	0.901859	-2.01194
H	-2.54604	0.705085	0.335256
C	5.82417	-0.951842	0.411269
O	4.85792	-1.72108	0.556098
N	6.78147	-0.826871	1.48512
C	7.90315	-0.0200429	1.4816
H	6.56155	-1.40492	2.28704
N	8.70088	-0.026597	2.58882
H	8.51122	-0.588025	3.40035
H	9.51499	0.564685	2.57672
N	8.23168	0.753675	0.454476
C	7.35585	0.671763	-0.589212
C	6.19739	-0.109218	-0.685885
N	5.5762	0.0912125	-1.92075
C	6.33894	0.968715	-2.5508
N	7.43968	1.35563	-1.78047
H	6.16179	1.35894	-3.53877
H	8.16682	2.00734	-2.02815
