29
  This energy is -0.000292921 and Call times are: 5056
C	-1.14986	-0.0925944	-0.401705
N	-2.41517	0.143543	-0.987783
H	-2.61251	1.04429	-1.44726
H	-3.14971	-0.578889	-0.961803
N	-0.192814	0.872304	-0.44568
C	1.03092	0.670487	0.109826
O	1.87212	1.54973	0.0578951
N	1.31721	-0.522183	0.727881
C	0.383507	-1.50807	0.789753
H	2.25818	-0.678048	1.15531
C	-0.874945	-1.31235	0.223531
H	0.616225	-2.44568	1.27858
H	-1.62201	-2.09473	0.270295
C	6.36625	-0.691566	-1.01732
O	5.51739	-1.18917	-1.77768
N	7.76286	-0.970913	-1.25528
C	8.82341	-0.497696	-0.506637
H	7.92053	-1.5719	-2.05499
N	10.0842	-0.865318	-0.87743
H	10.2749	-1.45969	-1.66491
H	10.8498	-0.51598	-0.325639
N	8.66577	0.291817	0.548531
C	7.36014	0.586137	0.816456
C	6.219	0.161095	0.124758
N	5.06716	0.683747	0.717226
C	5.50191	1.40365	1.73774
N	6.89585	1.37708	1.84244
H	4.88329	1.95602	2.42473
H	7.4714	1.83948	2.52781
