29
  This energy is 0.00112652 and Call times are: 2081
C	-0.597237	-0.589415	0.887698
N	-1.21329	-0.963018	2.10473
H	-1.20416	-0.318497	2.90842
H	-1.67559	-1.87912	2.20049
N	0.00792784	0.623437	0.779734
C	0.606975	1.00637	-0.378427
O	1.14267	2.09776	-0.451201
N	0.607682	0.164097	-1.46332
C	0.0118584	-1.05539	-1.38963
H	1.06822	0.458002	-2.35436
C	-0.605621	-1.45881	-0.20701
H	0.0163208	-1.71412	-2.24886
H	-1.08156	-2.4293	-0.143465
C	5.84984	-1.05915	0.0730851
O	4.95947	-1.88285	0.347143
N	6.47422	-1.11602	-1.22772
C	7.47297	-0.277854	-1.68505
H	6.10829	-1.8549	-1.8157
N	7.94874	-0.477494	-2.94842
H	7.60764	-1.20074	-3.55696
H	8.6763	0.137707	-3.27204
N	7.98308	0.703434	-0.951271
C	7.42515	0.799371	0.290736
C	6.4147	0.00564967	0.847795
N	6.12338	0.428366	2.14679
C	6.93574	1.4484	2.36664
N	7.75215	1.71605	1.26365
H	6.98756	2.02489	3.27478
H	8.45177	2.43538	1.17476
