29
  This energy is -0.00348189 and Call times are: 3296
C	1.16664	-0.00099908	0.362037
N	2.51379	-0.339174	0.628617
H	2.88586	-1.2534	0.333372
H	3.1347	0.321599	1.11849
N	0.362103	-0.885494	-0.285487
C	-0.935806	-0.584919	-0.553659
O	-1.63712	-1.3934	-1.13496
N	-1.45423	0.627627	-0.169749
C	-0.677669	1.53494	0.479341
H	-2.45237	0.85943	-0.375703
C	0.654846	1.23763	0.75974
H	-1.09311	2.4888	0.778989
H	1.27739	1.95716	1.27658
C	8.05862	0.808849	0.111656
O	9.02952	1.57778	0.00019052
N	7.93716	0.00999408	1.30843
C	6.92371	-0.887645	1.58472
H	8.6891	0.162042	1.96952
N	6.96903	-1.56019	2.7713
H	7.70035	-1.4326	3.44853
H	6.22677	-2.212	2.96297
N	5.91842	-1.11964	0.749782
C	5.98721	-0.387229	-0.399964
C	6.96467	0.543064	-0.774729
N	6.67203	1.07788	-2.03142
C	5.54951	0.486289	-2.40383
N	5.08918	-0.418251	-1.44226
H	5.02704	0.657905	-3.32976
H	4.26274	-0.992888	-1.48226
