29
  This energy is -0.0170251 and Call times are: 6727
C	0.161879	-0.200809	1.19398
N	0.672363	-0.26513	2.51137
H	1.60139	0.125153	2.72584
H	0.12363	-0.700758	3.26718
N	0.900066	0.377776	0.209493
C	0.432472	0.452287	-1.06433
O	1.11192	0.975283	-1.92933
N	-0.803143	-0.0611186	-1.37432
C	-1.5671	-0.646225	-0.414309
H	-1.16336	-0.00412812	-2.35382
C	-1.09787	-0.728336	0.895535
H	-2.54016	-1.04879	-0.665957
H	-1.70278	-1.19351	1.66372
C	4.09269	0.200771	1.19809
O	3.46298	0.156015	2.26944
N	4.06016	1.41799	0.421873
C	4.70241	1.62854	-0.783259
H	3.50232	2.14891	0.846313
N	4.5607	2.84726	-1.38073
H	4.01496	3.59324	-0.986466
H	5.03184	2.99057	-2.25824
N	5.44373	0.70142	-1.37694
C	5.50642	-0.471372	-0.681459
C	4.89724	-0.785379	0.539856
N	5.20849	-2.09359	0.91755
C	5.98357	-2.55531	-0.0492918
N	6.19657	-1.60323	-1.05075
H	6.41511	-3.54111	-0.0908017
H	6.74519	-1.70329	-1.88968
