29
  This energy is 0.00296774 and Call times are: 8562
C	0.780334	-0.0128067	-0.939693
N	1.54691	0.311577	-2.0831
H	1.43104	1.22719	-2.54096
H	2.22616	-0.360738	-2.46879
N	-0.111062	0.886861	-0.444819
C	-0.859692	0.59973	0.652423
O	-1.65167	1.42169	1.07733
N	-0.722721	-0.614418	1.27972
C	0.159065	-1.53672	0.811319
H	-1.29818	-0.835878	2.12366
C	0.932155	-1.25329	-0.31323
H	0.261713	-2.49176	1.31092
H	1.63593	-1.98479	-0.690091
C	6.15211	0.765076	-0.473793
O	5.31548	1.59695	-0.866706
N	5.75412	-0.617537	-0.350595
C	6.55944	-1.65874	0.0695493
H	4.78855	-0.780904	-0.608569
N	6.01394	-2.90836	0.12621
H	5.06028	-3.10426	-0.122605
H	6.60831	-3.65977	0.433876
N	7.82957	-1.49301	0.417217
C	8.25553	-0.200021	0.318237
C	7.52483	0.921358	-0.0939418
N	8.3253	2.06537	-0.0563592
C	9.50561	1.64525	0.366856
N	9.51611	0.26851	0.610153
H	10.3748	2.26315	0.516818
H	10.2856	-0.293909	0.936371
