29
  This energy is 0.00401475 and Call times are: 6440
C	0.0215163	1.0878	-0.55528
N	0.294374	2.4228	-0.934192
H	0.973726	2.98365	-0.400018
H	-0.18079	2.84696	-1.7444
N	0.658084	0.544809	0.516556
C	0.413768	-0.735482	0.901257
O	0.99625	-1.20004	1.86474
N	-0.487775	-1.50256	0.204678
C	-1.14164	-0.99099	-0.871588
H	-0.67613	-2.48731	0.500019
C	-0.899111	0.3208	-1.27532
H	-1.85099	-1.60152	-1.41593
H	-1.41753	0.73275	-2.13203
C	6.78586	-0.0152626	0.941232
O	5.95524	-0.193024	1.84942
N	6.51095	0.979719	-0.0685352
C	7.32674	1.2968	-1.1377
H	5.62834	1.45683	0.0690874
N	6.90625	2.26851	-1.99869
H	6.03687	2.76073	-1.89073
H	7.50709	2.49181	-2.77436
N	8.4911	0.699224	-1.35841
C	8.7979	-0.252496	-0.429341
C	8.04579	-0.647328	0.684094
N	8.70938	-1.65485	1.388
C	9.83021	-1.86166	0.717416
N	9.93298	-1.03008	-0.4018
H	10.5929	-2.57685	0.975377
H	10.6832	-0.989743	-1.0729
