29
  This energy is -0.00219823 and Call times are: 4739
C	-0.711006	-0.987717	-0.104859
N	-1.61897	-2.04765	0.124014
H	-2.08147	-2.1441	1.03955
H	-1.82681	-2.7315	-0.618479
N	-0.449044	-0.0948311	0.886616
C	0.419225	0.932391	0.692314
O	0.637902	1.71969	1.59549
N	1.04788	1.08137	-0.519717
C	0.808843	0.206715	-1.53235
H	1.71577	1.8712	-0.669815
C	-0.0796631	-0.850599	-1.34458
H	1.30802	0.330358	-2.48512
H	-0.273306	-1.54991	-2.14824
C	5.274	0.0610015	-1.45543
O	5.41295	-0.102711	-2.68027
N	4.7902	1.33342	-0.973684
C	4.5821	1.67359	0.349245
H	4.6028	1.99739	-1.71503
N	4.11887	2.92763	0.623356
H	3.92306	3.60963	-0.088187
H	3.97104	3.1659	1.58975
N	4.81318	0.837454	1.35375
C	5.2735	-0.382472	0.950069
C	5.5168	-0.825299	-0.356076
N	5.98368	-2.14168	-0.345313
C	6.0209	-2.48275	0.931798
N	5.59676	-1.44322	1.765
H	6.33505	-3.43799	1.31726
H	5.53181	-1.44649	2.77027
