29
  This energy is 0.000978635 and Call times are: 5390
C	-0.0479756	1.18443	-0.294855
N	-0.462275	2.51089	-0.557754
H	-1.4508	2.7768	-0.441469
H	0.216419	3.22219	-0.866874
N	-0.95754	0.259306	0.11225
C	-0.58526	-1.02175	0.371343
O	-1.41803	-1.83277	0.734855
N	0.726848	-1.39976	0.223349
C	1.66184	-0.500245	-0.181935
H	1.01383	-2.38486	0.422462
C	1.29165	0.81635	-0.450538
H	2.69433	-0.805342	-0.296437
H	2.03286	1.5365	-0.773642
C	8.64709	-1.06065	-0.444655
O	9.56026	-1.87257	-0.675401
N	7.40007	-1.19363	-1.16051
C	6.29371	-0.377859	-1.02036
H	7.39171	-1.97103	-1.80948
N	5.19481	-0.651761	-1.78176
H	5.15388	-1.41469	-2.43447
H	4.39447	-0.0516568	-1.67282
N	6.25819	0.65154	-0.183316
C	7.41628	0.820715	0.519016
C	8.58713	0.0552394	0.452142
N	9.54761	0.55576	1.33412
C	8.97178	1.59414	1.91629
N	7.66849	1.79898	1.45346
H	9.42446	2.22675	2.66102
H	7.02028	2.51701	1.73464
