29
  This energy is -0.00485653 and Call times are: 2028
C	0.184643	1.20424	0.0884786
N	0.0852024	2.58305	0.38721
H	-0.70375	2.93524	0.948399
H	0.796973	3.24704	0.0486409
N	-0.763877	0.342877	0.543735
C	-0.691484	-0.986411	0.270638
O	-1.55307	-1.73857	0.689351
N	0.350934	-1.47924	-0.475621
C	1.31618	-0.645956	-0.946295
H	0.407211	-2.50149	-0.68601
C	1.25232	0.719171	-0.6725
H	2.13499	-1.0415	-1.53393
H	2.01885	1.38692	-1.04526
C	5.09187	1.18531	-0.641091
O	4.77587	2.15856	-1.34768
N	4.35399	0.939695	0.575624
C	4.57872	-0.0929453	1.46574
H	3.6178	1.61518	0.740876
N	3.78087	-0.172318	2.57004
H	3.0423	0.481057	2.76339
H	3.95278	-0.927511	3.21243
N	5.53069	-1.00115	1.29115
C	6.25894	-0.812611	0.152216
C	6.11328	0.194694	-0.809775
N	7.05653	0.0364667	-1.8277
C	7.75151	-1.03627	-1.48862
N	7.30413	-1.59287	-0.286631
H	8.56966	-1.45675	-2.0486
H	7.66186	-2.40717	0.186379
