29
  This energy is -0.00757134 and Call times are: 4583
C	-0.529097	-0.927054	0.593916
N	-1.10161	-1.7739	1.57133
H	-1.16603	-1.46312	2.55147
H	-1.45869	-2.70613	1.31526
N	-0.0632162	0.299688	0.950217
C	0.491249	1.13232	0.0303697
O	0.901624	2.22655	0.373375
N	0.588055	0.739906	-1.28228
C	0.132258	-0.479739	-1.67255
H	1.01438	1.37981	-1.99024
C	-0.438274	-1.34206	-0.737934
H	0.211873	-0.782385	-2.70903
H	-0.802774	-2.31462	-1.04402
C	6.44482	0.147867	-1.4095
O	6.88523	0.102087	-2.57152
N	5.42914	1.12264	-1.08795
C	4.83955	1.30146	0.14881
H	5.16317	1.69913	-1.87693
N	3.8923	2.27603	0.272406
H	3.60579	2.86474	-0.489888
H	3.46924	2.39877	1.17711
N	5.15538	0.570552	1.21069
C	6.11394	-0.367878	0.958535
C	6.77051	-0.629212	-0.250569
N	7.68561	-1.67255	-0.0925804
C	7.58358	-2.03004	1.17648
N	6.6368	-1.26375	1.86288
H	8.14728	-2.81291	1.65513
H	6.37149	-1.3351	2.83207
