29
  This energy is -0.00818862 and Call times are: 3525
C	1.08723	0.270826	-0.486508
N	2.28689	0.907948	-0.880413
H	2.48228	1.87398	-0.580375
H	2.97506	0.415568	-1.46873
N	0.190869	0.936067	0.289945
C	-0.96911	0.346527	0.682016
O	-1.75667	0.962482	1.37753
N	-1.25152	-0.940494	0.294412
C	-0.377452	-1.63417	-0.481733
H	-2.14348	-1.3945	0.595617
C	0.815322	-1.03977	-0.889883
H	-0.606717	-2.64838	-0.783474
H	1.51474	-1.58833	-1.5082
C	5.40353	-0.210117	-1.38785
O	4.95919	-0.575557	-2.49028
N	6.20103	0.991935	-1.32259
C	6.76517	1.52975	-0.181681
H	6.32519	1.43958	-2.22247
N	7.49239	2.67778	-0.306196
H	7.63457	3.14665	-1.18352
H	7.89955	3.06125	0.530292
N	6.62953	0.979071	1.01829
C	5.88221	-0.163089	1.01043
C	5.26999	-0.787663	-0.083375
N	4.59453	-1.9389	0.328129
C	4.79421	-2.00645	1.63362
N	5.575	-0.944809	2.10053
H	4.4152	-2.77361	2.2875
H	5.86886	-0.765602	3.04728
