29
  This energy is -0.000402447 and Call times are: 7821
C	-1.00576	-0.235256	0.652089
N	-1.9567	-0.393703	1.68691
H	-1.70683	-0.161787	2.65912
H	-2.9049	-0.741018	1.48096
N	0.240542	0.224335	0.942621
C	1.17248	0.385462	-0.0332662
O	2.28228	0.798688	0.251324
N	0.862578	0.082833	-1.33664
C	-0.373842	-0.378776	-1.66188
H	1.57887	0.206539	-2.08768
C	-1.33767	-0.547993	-0.6694
H	-0.61106	-0.615311	-2.69144
H	-2.32398	-0.915424	-0.923574
C	7.71876	-1.09653	0.961314
O	7.69934	-2.166	1.5955
N	7.68642	0.147642	1.69356
C	7.70199	1.41412	1.14134
H	7.64979	0.0206356	2.69761
N	7.66571	2.48329	1.98862
H	7.62913	2.39189	2.98865
H	7.67691	3.40133	1.57677
N	7.74976	1.62959	-0.167424
C	7.78166	0.482175	-0.905993
C	7.76998	-0.841116	-0.447656
N	7.81383	-1.73008	-1.52411
C	7.85074	-0.963924	-2.60132
N	7.83313	0.396299	-2.2785
H	7.88997	-1.31374	-3.61909
H	7.85345	1.18018	-2.91089
