29
  This energy is -0.00940005 and Call times are: 4410
C	0.781556	0.932195	-0.110867
N	1.87277	1.76737	-0.44554
H	2.63379	1.41043	-1.04123
H	1.91841	2.73691	-0.0990902
N	0.738246	-0.34435	-0.577181
C	-0.29894	-1.16706	-0.270212
O	-0.315719	-2.30665	-0.699686
N	-1.32497	-0.713582	0.522278
C	-1.31316	0.556933	1.00523
H	-2.12297	-1.34581	0.758735
C	-0.254637	1.40965	0.696997
H	-2.1254	0.907573	1.62938
H	-0.240781	2.42257	1.07936
C	6.88197	-0.249411	0.945833
O	7.66217	-0.618263	1.84114
N	7.30658	0.789208	0.036895
C	6.56281	1.30843	-1.0054
H	8.24106	1.13021	0.226762
N	7.12518	2.2916	-1.76662
H	8.04919	2.65194	-1.60504
H	6.57538	2.66355	-2.52287
N	5.33522	0.893269	-1.29215
C	4.8862	-0.09061	-0.459425
C	5.55584	-0.682428	0.61883
N	4.75107	-1.65397	1.21832
C	3.62754	-1.6478	0.520913
N	3.65876	-0.710306	-0.515843
H	2.77229	-2.2763	0.703356
H	2.93499	-0.509295	-1.18708
