29
  This energy is -0.00762482 and Call times are: 6881
C	0.330551	-1.10096	-0.413188
N	0.370445	-2.37273	-1.03066
H	-0.451009	-2.7251	-1.54297
H	1.21706	-2.9578	-0.975209
N	-0.795154	-0.34289	-0.496867
C	-0.859184	0.882351	0.0875242
O	-1.87846	1.54312	-0.00103366
N	0.223237	1.3732	0.775893
C	1.36414	0.641551	0.878973
H	0.174654	2.31546	1.22557
C	1.44132	-0.616348	0.283702
H	2.21347	1.03486	1.42319
H	2.34799	-1.2029	0.363079
C	6.60531	0.877694	-0.216338
O	5.61884	1.6335	-0.171919
N	7.12226	0.48293	-1.50557
C	8.20517	-0.346593	-1.72551
H	6.60693	0.879091	-2.28214
N	8.55567	-0.614234	-3.01696
H	8.06586	-0.237568	-3.80941
H	9.34527	-1.21975	-3.16668
N	8.91039	-0.888328	-0.740247
C	8.4606	-0.545336	0.501973
C	7.38012	0.282405	0.831688
N	7.24814	0.382165	2.21861
C	8.22188	-0.364798	2.71117
N	8.99194	-0.953921	1.70386
H	8.42471	-0.521553	3.75713
H	9.78676	-1.56327	1.81235
