29
  This energy is -0.00699367 and Call times are: 3922
C	-1.01707	-0.573653	0.35861
N	-2.2305	-1.29832	0.410586
H	-2.66062	-1.65003	-0.457003
H	-2.69529	-1.48152	1.312
N	-0.418071	-0.341545	-0.839813
C	0.74808	0.351971	-0.917003
O	1.2659	0.54737	-2.00193
N	1.34025	0.830761	0.226025
C	0.768272	0.616618	1.44035
H	2.23714	1.36421	0.167357
C	-0.427671	-0.093302	1.53172
H	1.24074	0.997013	2.33718
H	-0.887117	-0.266417	2.49678
C	6.0322	-0.776166	1.17429
O	6.51164	-1.27116	2.2094
N	4.9585	-1.47054	0.503321
C	4.32097	-1.05612	-0.65036
H	4.68922	-2.33162	0.963331
N	3.32199	-1.84141	-1.14805
H	3.03072	-2.70076	-0.716276
H	2.86425	-1.5313	-1.9888
N	4.63904	0.0639336	-1.28743
C	5.65164	0.758822	-0.69174
C	6.35932	0.428429	0.470732
N	7.32062	1.40266	0.749492
C	7.19594	2.29535	-0.218128
N	6.18983	1.94895	-1.12503
H	7.78291	3.19202	-0.324079
H	5.89733	2.45646	-1.9446
