29
  This energy is -0.00212641 and Call times are: 6352
C	0.69955	0.404439	0.916061
N	1.61978	1.11588	1.7206
H	2.14781	1.90763	1.32597
H	1.77146	0.851556	2.70511
N	0.512432	0.767505	-0.380882
C	-0.365735	0.10037	-1.17497
O	-0.516357	0.444038	-2.33368
N	-1.08097	-0.958421	-0.671163
C	-0.918225	-1.34772	0.620949
H	-1.75653	-1.47193	-1.28136
C	-0.0204028	-0.670979	1.44469
H	-1.48543	-2.18327	1.01129
H	0.112681	-0.977386	2.47465
C	7.14323	-1.44964	0.161103
O	7.21616	-2.64124	0.509136
N	6.6744	-1.14048	-1.16924
C	6.53612	0.124971	-1.70652
H	6.4401	-1.96243	-1.71244
N	6.07658	0.230881	-2.98713
H	5.83535	-0.563928	-3.55267
H	5.97985	1.15661	-3.36951
N	6.83017	1.23032	-1.03325
C	7.27934	0.991532	0.233354
C	7.45468	-0.243732	0.869502
N	7.93413	-0.0592586	2.16836
C	8.04485	1.25074	2.31107
N	7.65717	1.93877	1.15736
H	8.38893	1.75866	3.19616
H	7.64765	2.93492	1.00768
