29
  This energy is -0.00322068 and Call times are: 6991
C	0.066702	-1.16161	0.371921
N	-0.122786	-2.39678	1.03426
H	-0.824169	-2.47934	1.78437
H	0.43563	-3.22336	0.775257
N	-0.679292	-0.0816725	0.727058
C	-0.516682	1.1163	0.106373
O	-1.19661	2.06949	0.441828
N	0.412192	1.25063	-0.896406
C	1.17462	0.19136	-1.27621
H	0.537748	2.17171	-1.37419
C	1.0166	-1.04211	-0.646768
H	1.90489	0.304618	-2.06748
H	1.62161	-1.88882	-0.945829
C	5.95202	-1.33126	0.388452
O	6.50708	-2.42911	0.570045
N	4.75227	-1.0264	1.13199
C	4.02005	0.1422	1.04605
H	4.46838	-1.77091	1.75704
N	2.90669	0.259821	1.82638
H	2.5979	-0.45943	2.45653
H	2.37998	1.11434	1.75621
N	4.35316	1.14442	0.242208
C	5.48329	0.904991	-0.484799
C	6.29317	-0.237483	-0.471973
N	7.35895	-0.0893299	-1.36254
C	7.19591	1.10904	-1.89739
N	6.06424	1.75827	-1.39486
H	7.83911	1.56024	-2.63391
H	5.72045	2.67371	-1.63692
