29
  This energy is 0.000473472 and Call times are: 6771
C	-0.0523867	0.26413	1.19147
N	0.0123617	0.223416	2.6037
H	0.33522	-0.629818	3.08242
H	-0.261232	1.04235	3.1664
N	0.312689	-0.826035	0.465418
C	0.259681	-0.812697	-0.892464
O	0.591856	-1.80143	-1.52132
N	-0.167474	0.313295	-1.55284
C	-0.539766	1.42051	-0.857818
H	-0.208469	0.324218	-2.59717
C	-0.489542	1.41839	0.535052
H	-0.875455	2.30456	-1.38509
H	-0.78509	2.29797	1.09308
C	3.95215	0.250714	1.42319
O	3.86585	0.252284	2.66371
N	3.53437	1.42554	0.694873
C	3.56649	1.58278	-0.677499
H	3.19712	2.16923	1.29383
N	3.1303	2.76676	-1.19737
H	2.78994	3.52411	-0.631392
H	3.15717	2.87132	-2.19781
N	3.9999	0.637079	-1.50173
C	4.40722	-0.497117	-0.86083
C	4.41563	-0.75635	0.51541
N	4.90921	-2.03859	0.766758
C	5.19034	-2.53838	-0.42484
N	4.90189	-1.6364	-1.45341
H	5.59379	-3.51862	-0.614875
H	5.02403	-1.77172	-2.44415
