29
  This energy is 0.000919736 and Call times are: 7910
C	1.21473	-0.114984	-0.0576695
N	2.59543	0.0793867	-0.294616
H	2.92322	0.929803	-0.774991
H	3.28508	-0.62371	0.00898196
N	0.319274	0.823562	-0.465328
C	-1.0126	0.660791	-0.249804
O	-1.79561	1.5153	-0.62409
N	-1.47331	-0.464702	0.388498
C	-0.605492	-1.42262	0.809063
H	-2.49752	-0.590501	0.55458
C	0.762629	-1.26646	0.59349
H	-0.975845	-2.30725	1.31156
H	1.45782	-2.02679	0.926678
C	9.21417	0.517486	-1.05494
O	10.1024	0.990626	-1.78531
N	7.9602	0.121359	-1.65146
C	6.87848	-0.418071	-0.982099
H	7.92646	0.274672	-2.65193
N	5.76804	-0.735288	-1.70918
H	5.70218	-0.595969	-2.70216
H	4.98547	-1.12704	-1.21255
N	6.87663	-0.637104	0.32694
C	8.04247	-0.278156	0.939347
C	9.19059	0.27288	0.356681
N	10.1696	0.497784	1.32719
C	9.62663	0.0937063	2.46325
N	8.32734	-0.389422	2.28109
H	10.101	0.120052	3.42973
H	7.70135	-0.753638	2.98129
