29
  This energy is -0.000960764 and Call times are: 1773
C	0.289275	-1.17761	-0.147213
N	0.406762	-2.58137	-0.0210558
H	-0.088147	-3.07607	0.735081
H	0.985597	-3.12191	-0.680521
N	-0.478982	-0.480898	0.732144
C	-0.608385	0.868254	0.632775
O	-1.30216	1.47069	1.43223
N	0.0418917	1.54956	-0.366915
C	0.817862	0.884057	-1.26278
H	-0.0572176	2.58719	-0.443906
C	0.957968	-0.499597	-1.17067
H	1.32752	1.4277	-2.04822
H	1.57501	-1.03413	-1.88196
C	7.1317	1.35696	-0.454721
O	7.58047	2.43178	-0.890273
N	5.76688	1.31173	0.014763
C	5.12149	0.201879	0.525518
H	5.28763	2.20065	-0.0608304
N	3.82374	0.341844	0.923755
H	3.31974	1.209	0.862192
H	3.36268	-0.471988	1.29476
N	5.70819	-0.98279	0.643424
C	7.00322	-0.992856	0.212313
C	7.74555	0.0694545	-0.318487
N	9.03788	-0.351817	-0.639986
C	9.07355	-1.63238	-0.311941
N	7.85533	-2.07346	0.213524
H	9.92279	-2.2852	-0.423201
H	7.62251	-2.99858	0.537176
