29
  This energy is -0.00077443 and Call times are: 5191
C	-0.321479	0.632669	-0.994228
N	-0.539372	1.07726	-2.31904
H	-0.22608	0.503594	-3.11538
H	-1.01136	1.97509	-2.5014
N	0.302939	-0.554748	-0.77279
C	0.524351	-1.0045	0.490354
O	1.0857	-2.07137	0.663734
N	0.115754	-0.25712	1.5678
C	-0.511329	0.934473	1.38216
H	0.285725	-0.60245	2.53955
C	-0.743773	1.40579	0.0912494
H	-0.830649	1.51827	2.23623
H	-1.24292	2.3544	-0.0616872
C	4.15784	0.428233	0.377751
O	2.99246	0.85015	0.47874
N	4.81804	-0.0818954	1.55635
C	6.10405	-0.584139	1.61201
H	4.24008	-0.0443334	2.38709
N	6.56834	-1.02507	2.81715
H	6.02107	-1.00182	3.65959
H	7.50617	-1.38851	2.84743
N	6.89773	-0.653393	0.550488
C	6.3189	-0.181841	-0.592167
C	5.03129	0.344354	-0.754988
N	4.82134	0.716047	-2.08491
C	5.95102	0.422218	-2.70638
N	6.89887	-0.129132	-1.83902
H	6.14961	0.576488	-3.75353
H	7.8324	-0.436018	-2.06073
