29
  This energy is -0.00228304 and Call times are: 5236
C	0.358353	-0.220353	1.14679
N	0.626721	-0.140853	2.53313
H	0.346686	0.694447	3.06723
H	1.10278	-0.913408	3.02165
N	-0.270761	0.808724	0.519014
C	-0.540204	0.757136	-0.811989
O	-1.10479	1.69131	-1.35232
N	-0.176387	-0.345999	-1.54489
C	0.453974	-1.39238	-0.948807
H	-0.383329	-0.386315	-2.5686
C	0.735474	-1.3506	0.415607
H	0.73784	-2.25873	-1.53284
H	1.23744	-2.18168	0.894913
C	5.54488	-1.14446	-0.431114
O	6.23089	-2.17154	-0.575423
N	5.18046	-0.380692	-1.60118
C	4.42672	0.777299	-1.61121
H	5.53557	-0.775229	-2.46363
N	4.17816	1.36988	-2.81512
H	4.51544	1.0045	-3.68833
H	3.62883	2.21294	-2.81184
N	3.94036	1.33071	-0.507238
C	4.25802	0.645046	0.629435
C	5.01044	-0.530173	0.747904
N	5.10755	-0.913669	2.08747
C	4.43259	0.00493144	2.75779
N	3.89334	0.98009	1.91339
H	4.29572	0.0283891	3.82572
H	3.34124	1.78214	2.17168
