29
  This energy is 0.00114713 and Call times are: 3768
C	0.335488	1.16863	0.117755
N	0.672099	2.5229	-0.112227
H	0.641418	2.90867	-1.06703
H	0.950278	3.13542	0.66852
N	-0.0292746	0.375374	-0.92464
C	-0.357378	-0.929032	-0.730467
O	-0.681002	-1.61998	-1.67981
N	-0.32379	-1.46567	0.533381
C	0.036365	-0.700758	1.59771
H	-0.576027	-2.46881	0.683409
C	0.374922	0.638266	1.41061
H	0.0606031	-1.13054	2.59115
H	0.662471	1.25158	2.25534
C	6.31796	-1.40707	0.0408677
O	6.19779	-2.64332	-0.018928
N	5.23408	-0.628189	0.591988
C	5.21092	0.746639	0.727912
H	4.44688	-1.19157	0.889472
N	4.09785	1.3182	1.27264
H	3.30043	0.788309	1.57775
H	4.09046	2.32	1.36691
N	6.21809	1.52541	0.352839
C	7.27022	0.835489	-0.176405
C	7.39327	-0.547802	-0.357165
N	8.62828	-0.856178	-0.932126
C	9.23276	0.30884	-1.09358
N	8.4454	1.37464	-0.647645
H	10.2132	0.453995	-1.51468
H	8.67288	2.35594	-0.658867
