29
  This energy is -0.00971059 and Call times are: 3437
C	-0.765661	-0.305238	0.9015
N	-1.63288	-0.296548	2.01869
H	-1.83118	0.585439	2.51284
H	-2.0736	-1.16765	2.34896
N	-0.193226	0.853849	0.479924
C	0.643564	0.872517	-0.590713
O	1.14443	1.92305	-0.94974
N	0.922976	-0.290764	-1.26534
C	0.367754	-1.46696	-0.870534
H	1.56646	-0.277098	-2.08885
C	-0.49191	-1.49822	0.226104
H	0.592561	-2.38008	-1.40712
H	-0.936617	-2.43275	0.544384
C	4.80113	-0.061288	-0.156471
O	3.60264	-0.332325	-0.347542
N	5.15556	1.278	0.250796
C	6.43421	1.73743	0.502074
H	4.35626	1.89263	0.345345
N	6.58458	3.04032	0.879175
H	5.81309	3.67587	0.982277
H	7.51965	3.36546	1.05937
N	7.51107	0.96948	0.391693
C	7.22897	-0.309646	0.00786189
C	5.97688	-0.872387	-0.269479
N	6.11499	-2.21472	-0.630035
C	7.41419	-2.45436	-0.571801
N	8.13961	-1.32288	-0.186758
H	7.88884	-3.39639	-0.78867
H	9.13659	-1.24088	-0.0679669
