29
  This energy is -0.00315297 and Call times are: 6859
C	0.539325	1.09129	0.101637
N	1.20978	2.24527	0.56969
H	1.51105	2.30544	1.55307
H	1.40329	3.03438	-0.0643343
N	0.292637	0.0598567	0.952629
C	-0.349747	-1.05988	0.527946
O	-0.559474	-1.9708	1.30875
N	-0.760902	-1.16298	-0.778477
C	-0.53037	-0.15053	-1.65563
H	-1.255	-2.0239	-1.10575
C	0.127541	1.00262	-1.23136
H	-0.857336	-0.238754	-2.684
H	0.313456	1.81181	-1.92639
C	6.09929	1.0316	1.02008
O	5.99119	2.05746	1.71452
N	6.03804	-0.257351	1.66819
C	6.14078	-1.4851	1.0427
H	5.90667	-0.19587	2.67045
N	6.06074	-2.60692	1.81565
H	5.93075	-2.5807	2.81173
H	6.13719	-3.49613	1.35089
N	6.31307	-1.61506	-0.266876
C	6.37788	-0.422223	-0.927195
C	6.28549	0.868314	-0.391206
N	6.39958	1.82522	-1.40227
C	6.55653	1.13078	-2.51665
N	6.55045	-0.247362	-2.28124
H	6.67724	1.54594	-3.50297
H	6.65118	-0.988396	-2.95617
