29
  This energy is -0.0102772 and Call times are: 4300
C	-0.817901	-0.297548	0.857095
N	-1.70189	-0.983629	1.72203
H	-1.79881	-2.00725	1.65699
H	-2.25582	-0.469968	2.42306
N	-0.0950297	-0.991908	-0.0617147
C	0.761167	-0.356552	-0.904377
O	1.39803	-0.999908	-1.71917
N	0.907133	1.00745	-0.836465
C	0.19978	1.73211	0.0702368
H	1.56547	1.49672	-1.48426
C	-0.681274	1.09128	0.939541
H	0.31994	2.80706	0.118059
H	-1.24694	1.66426	1.66351
C	6.54404	0.638533	-1.278
O	6.94926	1.30279	-2.248
N	5.49785	-0.334207	-1.48882
C	4.94026	-1.14786	-0.521228
H	5.1831	-0.381933	-2.45019
N	3.95573	-2.01321	-0.900974
H	3.62084	-2.08541	-1.84564
H	3.5557	-2.60108	-0.188985
N	5.3202	-1.12085	0.750181
C	6.30957	-0.214945	1.00228
C	6.93867	0.651252	0.0993744
N	7.90255	1.4215	0.754041
C	7.85562	1.03056	2.01646
N	6.89856	0.0321455	2.22123
H	8.46708	1.41465	2.81543
H	6.66694	-0.431813	3.08488
