29
  This energy is -0.0050444 and Call times are: 1135
C	-0.403684	-0.38406	1.08704
N	-1.10816	-0.548013	2.30239
H	-1.88313	0.0875303	2.54097
H	-0.855395	-1.30093	2.95917
N	-0.751254	0.614991	0.232646
C	-0.0903774	0.793884	-0.941266
O	-0.419861	1.69583	-1.69048
N	0.946146	-0.0408005	-1.28088
C	1.31952	-1.04955	-0.449857
H	1.45483	0.0962326	-2.18359
C	0.648999	-1.24257	0.756693
H	2.13754	-1.70365	-0.724114
H	0.942781	-2.04475	1.42198
C	5.28454	-0.735838	-1.05708
O	5.79133	-1.19612	-2.09517
N	5.47315	-1.44828	0.184712
C	4.97822	-1.07195	1.41865
H	6.02529	-2.29112	0.0830594
N	5.25545	-1.86945	2.49078
H	5.7998	-2.71146	2.42409
H	4.89015	-1.58714	3.38487
N	4.25071	0.0231681	1.60033
C	4.04305	0.733745	0.453587
C	4.49748	0.441356	-0.83843
N	4.06989	1.42009	-1.73853
C	3.37687	2.27844	-1.00936
N	3.33009	1.90504	0.337156
H	2.89389	3.16785	-1.37739
H	2.86979	2.38455	1.09412
