29
  This energy is 0.00187364 and Call times are: 5505
C	-0.669159	-1.00829	0.166413
N	-1.6646	-2.01146	0.111694
H	-2.48204	-1.89608	-0.504659
H	-1.58367	-2.86427	0.684663
N	-0.792721	0.110259	-0.596789
C	0.149651	1.08883	-0.562552
O	0.0171848	2.08178	-1.2553
N	1.2481	0.957369	0.251419
C	1.40277	-0.147903	1.02733
H	1.97325	1.70961	0.278214
C	0.442726	-1.15795	1.00045
H	2.27124	-0.244727	1.66657
H	0.56154	-2.04027	1.61674
C	6.986	0.5205	1.32588
O	6.93232	1.04623	2.45152
N	5.82521	-0.179866	0.828645
C	5.72338	-0.814443	-0.394509
H	5.0459	-0.173178	1.47533
N	4.54453	-1.42975	-0.701187
H	3.75276	-1.44156	-0.0825424
H	4.48049	-1.88948	-1.59398
N	6.71701	-0.849293	-1.27374
C	7.84026	-0.199814	-0.850007
C	8.04536	0.470522	0.362383
N	9.33511	1.00439	0.411922
C	9.89197	0.665145	-0.738533
N	9.02047	-0.071792	-1.54608
H	10.894	0.910909	-1.04726
H	9.1993	-0.447169	-2.46364
