29
  This energy is 5.0109e-05 and Call times are: 6264
C	1.16272	-0.340396	-0.155981
N	2.5751	-0.413538	-0.164894
H	3.13508	0.345449	0.249565
H	3.05705	-1.22246	-0.583812
N	0.54409	0.734628	0.401258
C	-0.811438	0.829053	0.42266
O	-1.34294	1.80172	0.927454
N	-1.57899	-0.170298	-0.123768
C	-0.992955	-1.2588	-0.68885
H	-2.62157	-0.0982991	-0.107628
C	0.396382	-1.36645	-0.716558
H	-1.60434	-2.04272	-1.11769
H	0.867807	-2.23163	-1.16559
C	8.8728	0.441997	-0.819412
O	9.72343	1.02174	-1.51702
N	9.06697	-0.95308	-0.501219
C	8.21972	-1.73706	0.25818
H	9.91605	-1.3394	-0.895439
N	8.562	-3.04289	0.458163
H	9.39654	-3.45689	0.0814631
H	7.93829	-3.60567	1.01207
N	7.0972	-1.27501	0.794861
C	6.86705	0.0425115	0.522402
C	7.65683	0.919879	-0.231111
N	7.07259	2.1879	-0.272724
C	5.9615	2.07785	0.435855
N	5.78904	0.786805	0.943979
H	5.25303	2.86803	0.618704
H	5.03055	0.443958	1.51139
