29
  This energy is -0.000834931 and Call times are: 7469
C	-0.522667	-0.689522	-0.862257
N	-0.775601	-1.55723	-1.95008
H	0.00843401	-1.97098	-2.47497
H	-1.74173	-1.78395	-2.22817
N	0.758648	-0.4018	-0.509639
C	1.02859	0.428841	0.531513
O	2.18449	0.671692	0.828656
N	-0.000123535	0.992384	1.24607
C	-1.29262	0.726029	0.920359
H	0.206798	1.63131	2.04694
C	-1.5815	-0.124363	-0.145473
H	-2.09845	1.17385	1.4881
H	-2.6095	-0.339549	-0.408733
C	8.82722	-0.669152	-0.416706
O	9.95875	-1.02744	-0.787637
N	7.8273	-1.67846	-0.158503
C	6.53012	-1.447	0.257318
H	8.16172	-2.622	-0.311682
N	5.71768	-2.52586	0.453177
H	6.01813	-3.47407	0.310371
H	4.77475	-2.34687	0.755459
N	6.04782	-0.229104	0.471028
C	6.95628	0.763087	0.240088
C	8.28616	0.636373	-0.180253
N	8.88151	1.89426	-0.29945
C	7.93673	2.75522	0.039457
N	6.74067	2.11523	0.377973
H	8.04303	3.82663	0.062388
H	5.87517	2.5404	0.669435
