29
  This energy is -0.00334626 and Call times are: 2499
C	0.557807	0.99001	0.448151
N	0.873747	2.19076	1.12538
H	0.161724	2.66259	1.70141
H	1.81458	2.60472	1.0505
N	-0.688831	0.45843	0.558637
C	-1.01779	-0.694112	-0.0818776
O	-2.14098	-1.1511	0.0322027
N	-0.0853659	-1.34102	-0.855507
C	1.1701	-0.837069	-0.987543
H	-0.33772	-2.22748	-1.34838
C	1.51882	0.34428	-0.335301
H	1.89996	-1.35243	-1.59906
H	2.51765	0.749625	-0.43744
C	5.52465	1.03639	-0.0449014
O	4.77813	2.02345	0.0766301
N	5.16392	0.00254312	-0.986301
C	5.88174	-1.15087	-1.2384
H	4.29891	0.192252	-1.47757
N	5.38927	-2.02248	-2.16581
H	4.53483	-1.86428	-2.67046
H	5.91897	-2.85971	-2.34189
N	7.01949	-1.44181	-0.619975
C	7.4049	-0.49342	0.282845
C	6.75419	0.702563	0.610725
N	7.47457	1.3982	1.58441
C	8.53005	0.642466	1.83652
N	8.53508	-0.525058	1.06737
H	9.31022	0.86984	2.54319
H	9.22225	-1.26167	1.06961
