29
  This energy is -0.00125534 and Call times are: 6947
C	-0.789449	-0.298147	-0.883169
N	-1.79287	-0.285273	-1.87978
H	-2.29367	0.588108	-2.09847
H	-2.03285	-1.14474	-2.3954
N	-0.486185	0.845527	-0.213144
C	0.473677	0.859865	0.748775
O	0.727835	1.89652	1.33541
N	1.15471	-0.292158	1.05774
C	0.876583	-1.45284	0.407317
H	1.89306	-0.281813	1.79744
C	-0.105803	-1.47952	-0.581025
H	1.41747	-2.35714	0.656136
H	-0.330907	-2.4017	-1.1019
C	7.31802	-0.733809	0.324676
O	8.44894	-1.15155	0.629399
N	6.27917	-1.6915	0.0266774
C	4.97736	-1.39203	-0.32654
H	6.58825	-2.65318	0.0989347
N	4.12578	-2.42915	-0.574567
H	4.40041	-3.39371	-0.511758
H	3.18009	-2.20073	-0.831553
N	4.52721	-0.148057	-0.433592
C	5.47344	0.797284	-0.161474
C	6.81126	0.600914	0.203172
N	7.44933	1.82853	0.394888
C	6.52194	2.73951	0.152384
N	5.29626	2.16165	-0.191872
H	6.66121	3.8061	0.204769
H	4.43584	2.63238	-0.421836
