29
  This energy is -0.00260874 and Call times are: 7888
C	0.0136018	0.0555868	1.22018
N	-0.337103	0.142956	2.58752
H	-1.32635	0.223591	2.86377
H	0.389093	0.127022	3.31863
N	-0.958157	0.0781338	0.269354
C	-0.647708	-0.00430074	-1.05112
O	-1.53553	0.0179179	-1.88459
N	0.664052	-0.11237	-1.44358
C	1.66027	-0.137817	-0.519194
H	0.9035	-0.17582	-2.459
C	1.35381	-0.0539557	0.837884
H	2.69209	-0.223186	-0.835892
H	2.14393	-0.0738118	1.57797
C	7.76991	-0.262138	1.42893
O	7.43609	-0.444718	2.6128
N	9.16114	-0.402497	1.06842
C	9.69207	-0.233982	-0.196055
H	9.75503	-0.64742	1.85129
N	11.0364	-0.406598	-0.354983
H	11.6531	-0.649586	0.400293
H	11.4135	-0.281171	-1.27945
N	8.95368	0.086471	-1.25135
C	7.62753	0.231371	-0.962571
C	6.99181	0.0836297	0.276516
N	5.62031	0.316623	0.151421
C	5.43456	0.597159	-1.12746
N	6.62966	0.558448	-1.852
H	4.48955	0.831647	-1.58759
H	6.76006	0.732654	-2.83559
