29
  This energy is -1.0778e-05 and Call times are: 2879
C	0.00820605	0.826238	-0.899651
N	-0.241278	1.94286	-1.73102
H	-0.940907	2.64708	-1.45534
H	0.271235	2.0637	-2.61694
N	-0.677608	0.683339	0.265737
C	-0.456638	-0.380292	1.08225
O	-1.08325	-0.486781	2.1212
N	0.471068	-1.332	0.735792
C	1.1742	-1.2199	-0.422063
H	0.641506	-2.15028	1.36333
C	0.956005	-0.133357	-1.26729
H	1.90393	-1.97397	-0.688734
H	1.51366	-0.0397168	-2.19069
C	7.41345	0.524975	-0.355992
O	8.5652	0.987421	-0.432999
N	6.6994	0.228503	-1.5756
C	5.42011	-0.28647	-1.66143
H	7.23172	0.435643	-2.41184
N	4.8992	-0.505109	-2.90368
H	5.40047	-0.310594	-3.7526
H	3.96676	-0.879813	-2.95564
N	4.68516	-0.573411	-0.594158
C	5.31664	-0.310119	0.586933
C	6.60286	0.20832	0.782309
N	6.87752	0.329196	2.14645
C	5.78713	-0.104174	2.75634
N	4.80305	-0.506693	1.84843
H	5.64216	-0.154013	3.8223
H	3.88745	-0.87301	2.05409
