29
  This energy is -0.00200221 and Call times are: 8584
C	0.88605	0.0239046	0.840507
N	1.89005	0.416383	1.75604
H	2.12074	1.41342	1.87485
H	2.39918	-0.286836	2.31138
N	0.224701	0.965761	0.116343
C	-0.744027	0.614951	-0.769845
O	-1.32267	1.47654	-1.40721
N	-1.06887	-0.707948	-0.94543
C	-0.427471	-1.67506	-0.237695
H	-1.81383	-0.978432	-1.62683
C	0.567731	-1.32711	0.673961
H	-0.688794	-2.71588	-0.381314
H	1.08148	-2.09393	1.24005
C	6.27543	1.24029	0.444967
O	6.8434	2.18484	1.02079
N	5.81708	1.42652	-0.911654
C	5.17185	0.48175	-1.68641
H	6.01274	2.35044	-1.27726
N	4.8077	0.83251	-2.95396
H	4.98684	1.73992	-3.34674
H	4.33794	0.13775	-3.51
N	4.89458	-0.740859	-1.25063
C	5.30832	-0.967815	0.0301442
C	5.96629	-0.0844465	0.895043
N	6.21766	-0.701191	2.12279
C	5.72477	-1.92228	2.00136
N	5.15781	-2.13626	0.741403
H	5.74168	-2.68431	2.76213
H	4.71828	-2.97499	0.397676
