29
  This energy is -0.00109363 and Call times are: 4605
C	-0.614986	0.863473	0.60689
N	-1.61167	1.63487	1.24863
H	-2.58481	1.29828	1.28201
H	-1.37674	2.53725	1.68754
N	-0.94347	-0.324776	0.0332582
C	-0.00467686	-1.08486	-0.589448
O	-0.322872	-2.14577	-1.09604
N	1.29914	-0.656864	-0.646739
C	1.66176	0.525951	-0.0836634
H	2.02166	-1.24097	-1.1255
C	0.707522	1.31386	0.557619
H	2.69143	0.857006	-0.132701
H	0.991552	2.25684	1.00764
C	6.7895	-1.29385	0.549288
O	7.25528	-2.41164	0.831984
N	5.83039	-0.692419	1.44572
C	5.22239	0.536768	1.27663
H	5.6224	-1.26657	2.2536
N	4.33604	0.949784	2.22855
H	4.10772	0.404732	3.04129
H	3.8982	1.84605	2.09611
N	5.46353	1.32338	0.235163
C	6.36579	0.798665	-0.644423
C	7.03487	-0.429174	-0.566592
N	7.87723	-0.595808	-1.66822
C	7.72013	0.501004	-2.39007
N	6.80708	1.38563	-1.80827
H	8.22008	0.71784	-3.31893
H	6.5131	2.28452	-2.15522
