29
  This energy is 0.000914443 and Call times are: 1342
C	0.577675	-0.996913	0.405665
N	1.49073	-1.90105	0.996534
H	2.34204	-1.54913	1.45787
H	1.31549	-2.91635	0.972231
N	0.825394	0.339417	0.447485
C	-0.0358608	1.229	-0.112621
O	0.207419	2.42135	-0.0625426
N	-1.17728	0.783531	-0.733224
C	-1.45549	-0.545609	-0.793053
H	-1.84009	1.46718	-1.16419
C	-0.579498	-1.46718	-0.222115
H	-2.35716	-0.889528	-1.28391
H	-0.796806	-2.52696	-0.267236
C	7.19268	-0.0426604	-0.0432234
O	5.97916	-0.117598	-0.304172
N	7.59735	0.207405	1.32019
C	8.89823	0.318175	1.77252
H	6.817	0.301029	1.95884
N	9.0966	0.557557	3.10131
H	8.34494	0.65553	3.76099
H	10.0475	0.637087	3.42079
N	9.95177	0.202689	0.973605
C	9.6219	-0.0346564	-0.329438
C	8.34396	-0.163692	-0.88759
N	8.43385	-0.403729	-2.26063
C	9.72991	-0.418792	-2.52281
N	10.4996	-0.198235	-1.37666
H	10.1723	-0.578859	-3.49152
H	11.5038	-0.161696	-1.30622
