29
  This energy is -0.00598337 and Call times are: 8912
C	0.917202	-0.404473	0.698034
N	2.17274	-0.625728	1.31035
H	2.99788	-0.088222	1.00762
H	2.27549	-1.32328	2.06201
N	0.800553	0.520069	-0.29217
C	-0.394377	0.751637	-0.896611
O	-0.474226	1.5849	-1.78131
N	-1.50835	0.0473298	-0.510051
C	-1.42698	-0.884144	0.476523
H	-2.42768	0.224951	-0.974509
C	-0.206762	-1.13012	1.10356
H	-2.30928	-1.43556	0.77605
H	-0.136961	-1.87114	1.88996
C	5.78489	0.51194	-0.0431212
O	4.56546	0.734731	-0.14153
N	6.66105	1.59288	0.343031
C	8.03176	1.51026	0.4963
H	6.17347	2.46589	0.50335
N	8.70426	2.63801	0.868112
H	8.25096	3.51918	1.03491
H	9.70218	2.56773	0.97658
N	8.71328	0.388825	0.29761
C	7.92863	-0.665645	-0.0704789
C	6.5402	-0.687539	-0.252411
N	6.11835	-1.96426	-0.630504
C	7.22182	-2.69163	-0.675382
N	8.356	-1.94535	-0.341594
H	7.2751	-3.73563	-0.934188
H	9.31166	-2.26135	-0.300601
