29
  This energy is -0.00167406 and Call times are: 3274
C	0.741084	-0.661593	0.710773
N	1.61361	-1.11316	1.72814
H	1.89547	-0.47705	2.48796
H	1.9751	-2.07825	1.72066
N	0.274053	0.615155	0.737022
C	-0.565314	1.07361	-0.228437
O	-0.970574	2.22128	-0.18369
N	-0.954933	0.244077	-1.25142
C	-0.506804	-1.03794	-1.30801
H	-1.60048	0.596045	-1.99426
C	0.354387	-1.51908	-0.323391
H	-0.818133	-1.68618	-2.11739
H	0.714033	-2.53956	-0.364188
C	7.83409	-0.263385	0.0386088
O	9.00013	-0.691953	-0.0163232
N	7.60475	1.0665	0.552429
C	6.37633	1.68642	0.678319
H	8.45537	1.54094	0.829788
N	6.3464	2.95243	1.18691
H	7.17131	3.45082	1.4713
H	5.44705	3.39508	1.27512
N	5.23584	1.10482	0.328195
C	5.39882	-0.157523	-0.164761
C	6.59137	-0.872308	-0.332758
N	6.33101	-2.13536	-0.869272
C	5.01805	-2.18068	-1.0203
N	4.401	-0.996947	-0.604673
H	4.46	-3.01379	-1.41306
H	3.41785	-0.777637	-0.615523
