29
  This energy is -0.00190738 and Call times are: 8775
C	-0.840893	0.36619	-0.806791
N	-1.98353	0.913148	-1.43565
H	-2.71715	1.36643	-0.871955
H	-2.09429	0.864555	-2.45913
N	-0.711781	0.439624	0.544811
C	0.376234	-0.0780504	1.17335
O	0.469706	-0.000228117	2.38521
N	1.36717	-0.687126	0.442956
C	1.26983	-0.777735	-0.909785
H	2.20423	-1.08546	0.925747
C	0.15855	-0.250416	-1.56522
H	2.05485	-1.25927	-1.47909
H	0.076521	-0.320174	-2.64263
C	4.98973	-0.274401	-1.3865
O	4.73074	-0.286846	-2.60268
N	4.84201	-1.496	-0.630814
C	5.08799	-1.64841	0.720271
H	4.52796	-2.27849	-1.19176
N	4.89414	-2.88145	1.27196
H	4.58352	-3.67791	0.74383
H	5.07547	-2.9821	2.25661
N	5.50063	-0.652805	1.49491
C	5.65591	0.527054	0.82641
C	5.43528	0.786045	-0.532102
N	5.70987	2.12408	-0.823968
C	6.0854	2.65681	0.326643
N	6.06973	1.72299	1.36705
H	6.37472	3.683	0.478261
H	6.31056	1.87303	2.33364
