29
  This energy is 0.00014086 and Call times are: 9310
C	-0.045686	0.808557	-0.914471
N	0.0779402	1.47546	-2.15552
H	0.541698	1.00998	-2.94904
H	-0.292494	2.42921	-2.27908
N	0.449082	-0.449699	-0.769946
C	0.343186	-1.1122	0.411881
O	0.794076	-2.23869	0.517284
N	-0.270868	-0.512072	1.48389
C	-0.776472	0.744845	1.37381
H	-0.352653	-1.02105	2.39311
C	-0.673653	1.43394	0.166668
H	-1.25922	1.21166	2.22309
H	-1.07487	2.43537	0.0741178
C	5.00509	0.742333	-0.614481
O	3.99819	1.40358	-0.923077
N	5.88022	0.276002	-1.66419
C	7.03254	-0.466094	-1.48923
H	5.57368	0.54624	-2.59079
N	7.74046	-0.822184	-2.60026
H	7.46402	-0.570403	-3.53297
H	8.57779	-1.36293	-2.46242
N	7.47326	-0.84292	-0.295361
C	6.67878	-0.426128	0.733308
C	5.49876	0.324929	0.664235
N	4.98502	0.544165	1.94444
C	5.83173	-0.058134	2.76239
N	6.88471	-0.666497	2.07257
H	5.74919	-0.0944965	3.83553
H	7.6564	-1.18585	2.4593
