29
  This energy is 0.00150341 and Call times are: 7090
C	-0.12913	-1.20362	-0.163509
N	-0.131774	-2.60994	-0.0134895
H	0.224254	-3.03846	0.853132
H	-0.487922	-3.21823	-0.765337
N	0.344612	-0.416813	0.839185
C	0.358131	0.936866	0.720018
O	0.787366	1.6209	1.63175
N	-0.111255	1.53092	-0.425928
C	-0.591809	0.774087	-1.44762
H	-0.101149	2.57198	-0.518216
C	-0.610586	-0.615135	-1.33662
H	-0.960204	1.24926	-2.34802
H	-0.992421	-1.22225	-2.14781
C	7.22468	1.39076	-0.229926
O	7.71812	2.53091	-0.283862
N	6.02959	1.11277	-0.9913
C	5.36128	-0.0956386	-1.03886
H	5.69606	1.91041	-1.51866
N	4.24198	-0.178933	-1.81512
H	3.88482	0.592931	-2.35031
H	3.76212	-1.06296	-1.84273
N	5.76062	-1.16753	-0.36571
C	6.88933	-0.956182	0.372138
C	7.63785	0.221761	0.488249
N	8.72551	0.0257903	1.34237
C	8.635	-1.23515	1.73042
N	7.53021	-1.87975	1.16593
H	9.31389	-1.73595	2.3998
H	7.23922	-2.83488	1.29953
