29
  This energy is -0.0128347 and Call times are: 1386
C	0.564601	-1.08109	-0.0676548
N	1.51613	-2.11938	-0.197302
H	2.50851	-1.8945	-0.35864
H	1.22883	-3.10698	-0.132178
N	0.962042	0.216241	-0.156321
C	0.0677284	1.2323	-0.0352763
O	0.447486	2.38655	-0.118282
N	-1.26055	0.957134	0.18009
C	-1.69179	-0.32849	0.273863
H	-1.94888	1.73812	0.273287
C	-0.783658	-1.37868	0.151311
H	-2.74037	-0.537894	0.443717
H	-1.12241	-2.40444	0.225282
C	5.38885	-0.634203	-0.0784376
O	4.34274	-1.24923	-0.349949
N	5.47796	0.065351	1.18167
C	6.56427	0.791517	1.63088
H	4.6413	-0.0180748	1.74614
N	6.47342	1.39059	2.85366
H	5.65849	1.32742	3.43817
H	7.26951	1.91752	3.17165
N	7.68105	0.92846	0.926883
C	7.64729	0.284228	-0.275986
C	6.60336	-0.47335	-0.821506
N	6.96422	-0.967237	-2.07721
C	8.19145	-0.519663	-2.28292
N	8.65537	0.250407	-1.21217
H	8.78924	-0.707382	-3.15879
H	9.55062	0.703164	-1.12086
