29
  This energy is 0.00379341 and Call times are: 3592
C	0.310946	1.03326	0.572527
N	0.5807	2.38004	0.909685
H	0.437746	3.12618	0.2138
H	0.921394	2.62852	1.85007
N	-0.138057	0.72422	-0.673177
C	-0.404631	-0.561822	-1.02227
O	-0.805971	-0.814136	-2.14417
N	-0.221611	-1.57352	-0.111558
C	0.225978	-1.29964	1.14233
H	-0.426456	-2.56283	-0.379398
C	0.502655	0.0155495	1.51158
H	0.367929	-2.10225	1.85501
H	0.859403	0.238682	2.50925
C	5.65843	0.266615	-0.50652
O	4.62087	0.534693	-1.13736
N	5.55294	-0.0828522	0.890597
C	6.60414	-0.405395	1.72732
H	4.60048	-0.0751436	1.2346
N	6.31885	-0.710963	3.02639
H	5.38566	-0.712656	3.39909
H	7.09119	-0.943969	3.62783
N	7.86765	-0.428934	1.32167
C	8.02143	-0.104748	0.00472809
C	7.02902	0.235155	-0.92311
N	7.59836	0.498942	-2.17099
C	8.89781	0.32309	-2.00002
N	9.20904	-0.046658	-0.688095
H	9.65238	0.442309	-2.75908
H	10.1191	-0.238691	-0.301263
