29
  This energy is -0.000290025 and Call times are: 7733
C	0.143266	0.69606	0.993521
N	0.186747	1.19775	2.31514
H	-0.0983042	0.60062	3.10482
H	0.502322	2.16092	2.50178
N	-0.275842	-0.577371	0.766339
C	-0.326869	-1.08333	-0.493911
O	-0.705754	-2.22698	-0.67256
N	0.0480753	-0.306207	-1.56251
C	0.471998	0.970971	-1.37095
H	0.00907746	-0.694736	-2.53202
C	0.528463	1.50054	-0.0829299
H	0.766008	1.57776	-2.21806
H	0.865468	2.51739	0.0746979
C	13.5675	0.973747	-0.753024
O	13.1041	1.87888	-1.46879
N	12.6544	0.137692	-0.00976497
C	13.0068	-0.90484	0.825758
H	11.6819	0.381987	-0.151561
N	12.0068	-1.59091	1.45147
H	11.0328	-1.37425	1.33243
H	12.2737	-2.34799	2.05822
N	14.2669	-1.2613	1.04202
C	15.1715	-0.499416	0.360629
C	14.9205	0.572278	-0.505272
N	16.1195	1.08796	-1.00272
C	17.0668	0.347789	-0.45186
N	16.5405	-0.636686	0.389869
H	18.1256	0.463177	-0.611292
H	17.0457	-1.32473	0.924829
