29
  This energy is 0.000404821 and Call times are: 7224
C	-0.323298	0.587915	1.02076
N	-0.404241	1.09021	2.34038
H	0.28546	0.798835	3.04807
H	-1.14999	1.74964	2.60713
N	0.667596	-0.28133	0.686942
C	0.767469	-0.778491	-0.573885
O	1.66375	-1.55584	-0.849209
N	-0.140422	-0.404643	-1.5343
C	-1.14334	0.462452	-1.23449
H	-0.0641697	-0.786632	-2.50419
C	-1.25567	0.978777	0.0552427
H	-1.85544	0.752697	-1.99666
H	-2.05289	1.66979	0.298868
C	6.63561	0.900532	-1.12718
O	6.59341	1.52654	-2.20081
N	5.87709	1.39551	-0.00253366
C	5.81785	0.819589	1.25205
H	5.36155	2.24244	-0.208706
N	5.04649	1.42656	2.20017
H	4.52294	2.26686	2.02828
H	5.0103	0.999782	3.11071
N	6.47537	-0.289098	1.56834
C	7.20988	-0.798055	0.536575
C	7.33685	-0.295133	-0.764292
N	8.18272	-1.10921	-1.52108
C	8.55536	-2.07583	-0.699178
N	7.98862	-1.93216	0.570819
H	9.21482	-2.89046	-0.946652
H	8.11173	-2.53032	1.37197
