29
  This energy is -0.00214593 and Call times are: 7843
C	-0.342968	0.0704863	1.17026
N	-0.842671	-0.198351	2.46575
H	-1.23321	-1.12556	2.6875
H	-0.821765	0.526363	3.1982
N	-0.378726	-0.898004	0.216512
C	0.0949435	-0.665216	-1.0358
O	0.0522597	-1.5484	-1.87339
N	0.620184	0.563073	-1.35493
C	0.671177	1.55356	-0.42546
H	0.984661	0.742762	-2.31789
C	0.188343	1.3263	0.862109
H	1.08659	2.51935	-0.684153
H	0.226807	2.1122	1.60594
C	7.50863	0.358211	-0.122094
O	8.68212	0.610091	-0.447381
N	7.11473	0.536218	1.25571
C	5.8564	0.301629	1.77605
H	7.8676	0.86408	1.84838
N	5.66205	0.524147	3.10836
H	6.38715	0.849141	3.72348
H	4.74243	0.34991	3.47781
N	4.83975	-0.127793	1.03877
C	5.16131	-0.312495	-0.27483
C	6.39764	-0.105266	-0.899223
N	6.31352	-0.409672	-2.25981
C	5.06137	-0.78996	-2.45018
N	4.3151	-0.748521	-1.26862
H	4.63576	-1.10035	-3.38947
H	3.34432	-0.986997	-1.14406
