29
  This energy is -0.0031517 and Call times are: 7799
C	-0.286365	-0.636425	1.00253
N	-0.956831	-1.24477	2.08911
H	-1.96955	-1.10451	2.21614
H	-0.44252	-1.83185	2.76213
N	-0.981343	0.13488	0.124474
C	-0.360828	0.730462	-0.927702
O	-1.00442	1.41687	-1.70102
N	0.98849	0.558089	-1.11756
C	1.71332	-0.206519	-0.258732
H	1.46634	1.01586	-1.92659
C	1.08763	-0.822214	0.823881
H	2.77664	-0.337956	-0.414628
H	1.66081	-1.43223	1.51073
C	8.16953	0.746949	0.235563
O	7.03428	1.25334	0.268765
N	9.17643	1.23509	1.14829
C	10.4784	0.781085	1.23762
H	8.84325	1.97553	1.75354
N	11.2972	1.36057	2.16285
H	10.9981	2.09666	2.77808
H	12.2436	1.02338	2.21978
N	10.9593	-0.186173	0.466449
C	10.0443	-0.682505	-0.416432
C	8.70921	-0.295202	-0.586461
N	8.10787	-1.04945	-1.59662
C	9.05419	-1.86848	-2.0237
N	10.257	-1.68482	-1.33507
H	8.94446	-2.60053	-2.80589
H	11.1249	-2.17864	-1.46796
