29
  This energy is -3.103e-06 and Call times are: 2433
C	-0.990807	0.19629	-0.686935
N	-1.88696	0.440214	-1.75355
H	-1.53054	0.549668	-2.71397
H	-2.90085	0.510784	-1.58272
N	0.343766	0.106254	-0.931266
C	1.22572	-0.127455	0.0758897
O	2.41665	-0.204035	-0.167491
N	0.774183	-0.276754	1.36439
C	-0.55341	-0.192591	1.64369
H	1.45196	-0.456529	2.13945
C	-1.46718	0.0467769	0.618828
H	-0.902147	-0.311313	2.66178
H	-2.52571	0.114655	0.836373
C	10.2123	-1.04532	0.878808
O	10.6421	-2.06812	1.44049
N	10.0496	0.160032	1.65716
C	9.58622	1.37334	1.18562
H	10.3141	0.0484496	2.62833
N	9.49609	2.41136	2.06694
H	9.75023	2.33402	3.03605
H	9.15708	3.29059	1.71401
N	9.22842	1.5669	-0.0777403
C	9.36372	0.454534	-0.857105
C	9.82078	-0.814408	-0.480025
N	9.81017	-1.68144	-1.57505
C	9.35911	-0.955355	-2.58404
N	9.0715	0.357375	-2.19836
H	9.2184	-1.30286	-3.59359
H	8.71787	1.10524	-2.7732
