29
  This energy is -0.00181056 and Call times are: 3966
C	-0.718638	-0.930296	0.331989
N	-1.22696	-2.18457	0.742663
H	-0.584326	-2.96947	0.922566
H	-2.2403	-2.32644	0.865791
N	0.621406	-0.761594	0.174786
C	1.13522	0.433349	-0.218834
O	2.33909	0.560396	-0.352819
N	0.298232	1.49423	-0.464598
C	-1.04633	1.36001	-0.317203
H	0.692758	2.41353	-0.767349
C	-1.58461	0.139231	0.0859934
H	-1.70006	2.20063	-0.51271
H	-2.65503	0.0274429	0.204786
C	5.85758	0.945536	1.09103
O	6.1445	1.8767	1.86365
N	5.11573	-0.181787	1.60484
C	4.72078	-1.29044	0.880914
H	4.89168	-0.0988575	2.58897
N	4.02304	-2.26589	1.53206
H	3.78466	-2.21445	2.50689
H	3.7404	-3.06942	0.996345
N	4.99103	-1.44278	-0.409559
C	5.69299	-0.40136	-0.944129
C	6.13847	0.76065	-0.3018
N	6.82204	1.58273	-1.2006
C	6.78962	0.934201	-2.35259
N	6.11128	-0.284008	-2.24991
H	7.22374	1.2754	-3.27719
H	5.94764	-0.961581	-2.97718
