29
  This energy is -0.00142189 and Call times are: 6705
C	0.414362	0.679194	0.926881
N	0.898011	1.139	2.17385
H	1.04414	0.475721	2.94852
H	1.10843	2.13717	2.3205
N	0.142193	-0.641459	0.751687
C	-0.323392	-1.10875	-0.436464
O	-0.560056	-2.29604	-0.569545
N	-0.526122	-0.243537	-1.48371
C	-0.264237	1.08278	-1.34269
H	-0.884174	-0.602279	-2.39779
C	0.213584	1.57339	-0.128772
H	-0.426429	1.75897	-2.17257
H	0.423644	2.62912	-0.011609
C	7.12279	0.610084	-0.0741892
O	8.29662	0.961714	-0.285858
N	6.3212	1.37951	0.848109
C	5.0074	1.12247	1.19019
H	6.8168	2.16604	1.24979
N	4.40232	1.95828	2.08329
H	4.86539	2.74683	2.49985
H	3.44572	1.7624	2.32634
N	4.31789	0.10469	0.689922
C	5.03296	-0.65578	-0.189526
C	6.36012	-0.482251	-0.601638
N	6.72057	-1.47552	-1.51511
C	5.64076	-2.22693	-1.64972
N	4.58115	-1.76878	-0.861019
H	5.55471	-3.09425	-2.28226
H	3.65654	-2.16093	-0.782791
