29
  This energy is 0.0018207 and Call times are: 284
C	0.0919983	1.17898	-0.306016
N	0.393735	2.40545	-0.942399
H	0.953255	2.41555	-1.80741
H	0.0590609	3.29771	-0.549964
N	0.54204	0.011504	-0.838321
C	0.265976	-1.18023	-0.246391
O	0.680004	-2.21293	-0.741875
N	-0.478034	-1.21882	0.907463
C	-0.943506	-0.0704757	1.46625
H	-0.69072	-2.13505	1.36322
C	-0.666621	1.15756	0.868013
H	-1.52938	-0.108525	2.37594
H	-1.03523	2.07501	1.3094
C	5.63407	-0.362983	1.33365
O	5.05218	-0.752798	2.36116
N	6.92793	0.265172	1.46227
C	7.70043	0.750414	0.424502
H	7.24875	0.328878	2.4207
N	8.90366	1.31642	0.731436
H	9.25104	1.3951	1.67106
H	9.45855	1.66726	-0.0311566
N	7.32193	0.688881	-0.846133
C	6.10201	0.102315	-1.02169
C	5.24513	-0.418929	-0.0442642
N	4.0885	-0.93354	-0.634461
C	4.24384	-0.728044	-1.93152
N	5.45786	-0.0979672	-2.22117
H	3.53925	-1.00094	-2.69888
H	5.81397	0.168007	-3.12518
