29
  This energy is 0.00447258 and Call times are: 1276
C	-0.990397	0.712943	0.0541783
N	-2.19506	1.40071	-0.221561
H	-2.67635	1.26071	-1.12166
H	-2.60247	2.04599	0.471089
N	-0.467648	-0.134595	-0.871728
C	0.688405	-0.807361	-0.631402
O	1.1373	-1.56124	-1.47613
N	1.34794	-0.636864	0.561225
C	0.853067	0.202747	1.50872
H	2.2371	-1.15399	0.746697
C	-0.331767	0.897991	1.27331
H	1.37837	0.33222	2.44655
H	-0.72991	1.56794	2.02501
C	6.28155	-0.192732	-0.593302
O	5.26569	-0.501185	-1.24077
N	6.15512	0.750906	0.492402
C	7.18121	1.19526	1.30409
H	5.20791	1.08344	0.625802
N	6.87858	2.09316	2.28619
H	5.94997	2.44274	2.44504
H	7.63273	2.41107	2.87163
N	8.43693	0.787803	1.16727
C	8.60987	-0.1074	0.151507
C	7.64332	-0.619007	-0.723343
N	8.22602	-1.51338	-1.62417
C	9.50814	-1.53999	-1.30139
N	9.79508	-0.698304	-0.222519
H	10.2662	-2.12813	-1.79039
H	10.6888	-0.538736	0.214045
