29
  This energy is 0.000263422 and Call times are: 8357
C	0.064019	0.0461152	-1.21897
N	-0.221772	0.0180321	-2.60381
H	-1.17677	-0.187857	-2.93091
H	0.518116	0.202199	-3.2972
N	-0.924925	-0.199306	-0.318608
C	-0.676514	-0.178345	1.01731
O	-1.57858	-0.40131	1.80469
N	0.588764	0.0936791	1.47719
C	1.60051	0.343497	0.60452
H	0.780488	0.109966	2.50452
C	1.35752	0.324694	-0.767783
H	2.59543	0.557178	0.974248
H	2.16024	0.523068	-1.46685
C	7.8592	0.0361024	1.05246
O	8.6659	0.289252	1.96432
N	7.78221	-1.31405	0.546144
C	6.94339	-1.75657	-0.458708
H	8.42199	-1.95099	1.005
N	7.00524	-3.07333	-0.811796
H	7.62817	-3.73099	-0.376816
H	6.39081	-3.38571	-1.5449
N	6.08897	-0.959443	-1.08807
C	6.12311	0.331196	-0.645178
C	6.9299	0.878762	0.360091
N	6.66064	2.24074	0.513212
C	5.71789	2.50674	-0.375162
N	5.35383	1.37374	-1.10898
H	5.2639	3.46942	-0.539178
H	4.66448	1.30855	-1.84066
