29
  This energy is 0.000532021 and Call times are: 1940
C	0.336356	-0.981697	0.644394
N	0.720672	-2.2787	1.05712
H	0.81682	-3.0349	0.364059
H	0.907738	-2.48055	2.05029
N	0.0936683	-0.733871	-0.670359
C	-0.276909	0.503481	-1.09281
O	-0.488903	0.70135	-2.27573
N	-0.411681	1.5274	-0.187351
C	-0.176781	1.31416	1.13437
H	-0.69665	2.47928	-0.511597
C	0.203808	0.0492827	1.57918
H	-0.285005	2.12604	1.84245
H	0.39202	-0.125464	2.63105
C	7.07263	0.835642	1.17457
O	7.43992	1.6311	2.05699
N	5.91868	0.0040363	1.4236
C	5.38547	-0.925273	0.551104
H	5.50298	0.158032	2.33412
N	4.28624	-1.62623	0.954439
H	3.84984	-1.4976	1.85041
H	3.90575	-2.30097	0.312184
N	5.89542	-1.16108	-0.651355
C	6.99107	-0.398386	-0.935791
C	7.60677	0.565146	-0.127193
N	8.70473	1.12407	-0.785238
C	8.74967	0.514283	-1.95778
N	7.72429	-0.425446	-2.10003
H	9.47557	0.696155	-2.73222
H	7.53801	-1.01931	-2.89214
