29
  This energy is -0.00421769 and Call times are: 1512
C	0.834429	-0.184873	-0.872731
N	1.60741	-0.710333	-1.93417
H	1.35681	-1.6153	-2.35801
H	2.42541	-0.196552	-2.29337
N	-0.24154	-0.876796	-0.411836
C	-1.00052	-0.393907	0.606786
O	-1.95965	-1.03174	1.00258
N	-0.685939	0.810288	1.18762
C	0.382915	1.52775	0.751278
H	-1.26927	1.18225	1.97107
C	1.16852	1.04242	-0.292704
H	0.624942	2.47624	1.2139
H	2.02096	1.61033	-0.64375
C	5.27556	1.37756	0.299332
O	5.1327	2.60705	0.418846
N	4.36538	0.499964	0.996886
C	4.38901	-0.881267	0.968482
H	3.66815	0.995174	1.5393
N	3.44739	-1.55344	1.69227
H	2.74238	-1.09274	2.24041
H	3.47329	-2.55901	1.66553
N	5.2827	-1.57303	0.272532
C	6.16859	-0.787463	-0.406546
C	6.2307	0.61111	-0.444522
N	7.28611	1.03013	-1.25784
C	7.84471	-0.0848644	-1.69771
N	7.19948	-1.22395	-1.20689
H	8.69521	-0.143385	-2.35572
H	7.42699	-2.18812	-1.3897
