29
  This energy is 0.00104745 and Call times are: 606
C	-0.594166	-0.773601	0.735267
N	-1.55269	-1.62031	1.33906
H	-2.48092	-1.74066	0.908562
H	-1.33438	-2.12348	2.21158
N	-0.899923	-0.117741	-0.415929
C	0.00316093	0.701511	-1.01601
O	-0.293651	1.2784	-2.04678
N	1.24695	0.877714	-0.460708
C	1.58538	0.23725	0.689449
H	1.94198	1.50765	-0.921728
C	0.667334	-0.605402	1.31374
H	2.56769	0.380918	1.12148
H	0.932306	-1.11776	2.23009
C	10.9294	0.386982	-0.273818
O	12.0725	0.871827	-0.341551
N	10.5791	-0.696553	-1.16177
C	9.35792	-1.34095	-1.21228
H	11.3339	-0.967429	-1.78031
N	9.2021	-2.34892	-2.11896
H	9.93018	-2.64201	-2.74646
H	8.30902	-2.81161	-2.14835
N	8.34058	-1.02111	-0.42217
C	8.62137	0.000703537	0.43813
C	9.81833	0.715851	0.569056
N	9.69995	1.68552	1.56739
C	8.46591	1.55848	2.02535
N	7.7646	0.542765	1.36868
H	8.02333	2.15017	2.80879
H	6.81505	0.246719	1.52839
