29
  This energy is -0.00145951 and Call times are: 650
C	0.187663	-0.0790107	1.20443
N	0.157296	-0.443882	2.57052
H	-0.452849	-1.21105	2.88767
H	0.741985	0.0509613	3.26001
N	-0.590672	-0.743226	0.308938
C	-0.579918	-0.412179	-1.00906
O	-1.28586	-1.02161	-1.79241
N	0.225268	0.607064	-1.45542
C	1.01582	1.29168	-0.587134
H	0.234019	0.862168	-2.46896
C	1.01304	0.960973	0.766836
H	1.64799	2.094	-0.946128
H	1.64105	1.50345	1.46234
C	6.78161	1.33892	0.228404
O	7.2086	2.42993	0.645183
N	6.72685	1.1113	-1.19651
C	6.28096	-0.0398425	-1.81718
H	7.05715	1.89877	-1.7409
N	6.29915	-0.0808268	-3.18112
H	6.62042	0.682426	-3.75032
H	5.97199	-0.923238	-3.62366
N	5.83959	-1.09635	-1.14595
C	5.87081	-0.931137	0.208602
C	6.30116	0.187499	0.933005
N	6.17399	-0.0419106	2.30491
C	5.68056	-1.26474	2.40465
N	5.47697	-1.85205	1.15232
H	5.45166	-1.77593	3.32446
H	5.11345	-2.77038	0.953971
