29
  This energy is -0.00312243 and Call times are: 6969
C	0.21518	0.181663	1.18861
N	0.0950729	0.378938	2.58393
H	-0.835772	0.403036	3.0248
H	0.932817	0.500111	3.17184
N	-0.901294	0.0235568	0.42876
C	-0.813176	-0.167438	-0.913844
O	-1.82739	-0.306662	-1.57368
N	0.416818	-0.203215	-1.52397
C	1.55307	-0.0486185	-0.794154
H	0.48529	-0.350083	-2.55652
C	1.47494	0.147892	0.583486
H	2.51924	-0.0779416	-1.28188
H	2.37726	0.271542	1.16909
C	5.54367	0.32542	-1.40857
O	5.6992	0.376056	-2.64128
N	5.52575	1.5589	-0.657977
C	5.36361	1.6737	0.709392
H	5.64683	2.38143	-1.23622
N	5.37272	2.92536	1.25307
H	5.49048	3.76124	0.707914
H	5.25443	2.9984	2.24967
N	5.20158	0.625212	1.50688
C	5.21138	-0.567976	0.8441
C	5.36748	-0.792242	-0.529452
N	5.31887	-2.15997	-0.80852
C	5.13865	-2.74387	0.364216
N	5.06618	-1.81534	1.40695
H	5.05385	-3.80447	0.530682
H	4.93377	-1.99976	2.38841
