29
  This energy is -0.0150401 and Call times are: 6374
C	0.174318	0.312025	1.16806
N	0.679877	0.832779	2.38193
H	1.56057	1.36734	2.38859
H	0.175611	0.684047	3.26834
N	0.853261	0.518266	0.00814959
C	0.388969	0.0285587	-1.17145
O	1.01463	0.226189	-2.19755
N	-0.782796	-0.687154	-1.20523
C	-1.4865	-0.91173	-0.0641929
H	-1.14044	-1.06405	-2.11212
C	-1.02001	-0.41434	1.15137
H	-2.40941	-1.47679	-0.0983909
H	-1.57707	-0.590649	2.06297
C	7.05906	1.06578	0.973587
O	7.45053	1.89138	1.81707
N	5.69445	1.14075	0.507324
C	5.10792	0.303079	-0.421901
H	5.16664	1.89319	0.932573
N	3.8003	0.52088	-0.745949
H	3.2489	1.2579	-0.34282
H	3.38213	-0.0947766	-1.42318
N	5.7594	-0.695268	-1.00538
C	7.05693	-0.809136	-0.597324
C	7.7432	-0.0173794	0.331901
N	9.06043	-0.460608	0.471173
C	9.16515	-1.49096	-0.351105
N	7.96869	-1.74555	-1.02815
H	10.0509	-2.08402	-0.504291
H	7.78534	-2.46881	-1.70497
