29
  This energy is -0.010639 and Call times are: 3900
C	-1.02264	0.265013	-0.613258
N	-2.32471	0.258791	-1.16538
H	-2.97948	-0.503407	-0.937895
H	-2.63119	1.01252	-1.7979
N	-0.635714	-0.737846	0.21948
C	0.609682	-0.755233	0.763094
O	0.933489	-1.66414	1.50635
N	1.49998	0.249984	0.474432
C	1.14577	1.26761	-0.354158
H	2.45796	0.237216	0.892201
C	-0.128774	1.29591	-0.917494
H	1.85281	2.05664	-0.577237
H	-0.415549	2.10445	-1.57813
C	5.26793	-0.323105	0.615919
O	4.25246	-0.47455	1.31751
N	5.31135	-0.941187	-0.688413
C	6.36001	-0.869247	-1.58524
H	4.4717	-1.46064	-0.913642
N	6.22867	-1.51848	-2.77838
H	5.40958	-2.0421	-3.03267
H	6.99796	-1.46053	-3.42444
N	7.47888	-0.200874	-1.33433
C	7.48791	0.403081	-0.110308
C	6.48401	0.392156	0.866101
N	6.88123	1.13276	1.98174
C	8.09097	1.57757	1.68608
N	8.50828	1.15987	0.418758
H	8.7073	2.18985	2.32248
H	9.38235	1.36125	-0.0397722
