29
  This energy is -0.000871365 and Call times are: 7359
C	-0.644085	0.275035	-1.00081
N	-1.13154	0.856055	-2.19457
H	-0.642018	1.65812	-2.61702
H	-1.9772	0.485528	-2.6525
N	0.473237	0.77725	-0.41067
C	0.962061	0.237199	0.736598
O	1.96454	0.704261	1.24678
N	0.326522	-0.832433	1.31832
C	-0.792694	-1.35906	0.754748
H	0.701962	-1.24826	2.20067
C	-1.30313	-0.813425	-0.421833
H	-1.28844	-2.20229	1.2189
H	-2.19442	-1.22948	-0.874511
C	7.14102	0.379236	-1.37411
O	7.0808	0.808472	-2.53964
N	6.04211	-0.406532	-0.864055
C	5.95536	-0.953564	0.401802
H	5.29662	-0.536829	-1.53699
N	4.83748	-1.67102	0.714765
H	4.08041	-1.81897	0.0707826
H	4.78353	-2.06486	1.63916
N	6.90648	-0.809717	1.31626
C	7.9701	-0.0724899	0.882359
C	8.15518	0.52208	-0.372049
N	9.38034	1.19126	-0.418155
C	9.91867	1.00535	0.775315
N	9.0971	0.239449	1.60787
H	10.8732	1.38463	1.09913
H	9.27439	-0.0423716	2.55863
