29
  This energy is -2.0706e-05 and Call times are: 3119
C	0.394705	-0.900249	0.725168
N	1.16512	-1.74617	1.55651
H	2.14422	-1.50824	1.7714
H	0.757809	-2.60522	1.95432
N	0.948907	0.229162	0.209241
C	0.230212	1.05865	-0.592169
O	0.74829	2.0647	-1.04257
N	-1.07679	0.762287	-0.892727
C	-1.66174	-0.358639	-0.393779
H	-1.6301	1.39983	-1.50902
C	-0.934411	-1.21673	0.429198
H	-2.69247	-0.5859	-0.634956
H	-1.39603	-2.11084	0.829046
C	8.23457	-0.163135	-0.428731
O	9.45687	-0.341212	-0.572279
N	7.43356	0.137311	-1.59204
C	6.07007	0.360806	-1.60194
H	7.97095	0.174715	-2.44959
N	5.47387	0.633156	-2.7989
H	5.97778	0.677534	-3.66715
H	4.48072	0.794941	-2.79556
N	5.32499	0.322017	-0.504247
C	6.03705	0.0412015	0.625882
C	7.41156	-0.199996	0.74359
N	7.75017	-0.449834	2.07545
C	6.61147	-0.361518	2.742
N	5.53396	-0.0632614	1.90251
H	6.49378	-0.49731	3.80382
H	4.56731	0.0568068	2.15938
