29
  This energy is 0.00218862 and Call times are: 8956
C	0.578063	-1.0589	0.191536
N	1.54065	-2.08927	0.301152
H	2.52517	-1.90533	0.0596899
H	1.26932	-3.03031	0.622016
N	0.954452	0.176627	-0.233552
C	0.0491431	1.18373	-0.347518
O	0.410052	2.28214	-0.730459
N	-1.269	0.962377	-0.0314178
C	-1.67921	-0.260774	0.396624
H	-1.96578	1.73651	-0.118838
C	-0.75964	-1.30117	0.517359
H	-2.71991	-0.427991	0.644029
H	-1.08163	-2.27726	0.857907
C	9.60769	1.36949	-0.439592
O	9.22588	2.44615	-0.930884
N	10.7576	1.37188	0.43389
C	11.3051	0.266586	1.05651
H	11.1578	2.29262	0.566606
N	12.3981	0.454725	1.85165
H	12.8193	1.35422	2.00427
H	12.7898	-0.356402	2.3002
N	10.8153	-0.958539	0.912708
C	9.72463	-1.01478	0.0939339
C	9.09545	0.038818	-0.580873
N	8.00822	-0.435185	-1.31857
C	7.98289	-1.73826	-1.09477
N	9.01074	-2.14348	-0.238009
H	7.26996	-2.43204	-1.50727
H	9.21027	-3.07569	0.0875359
