29
  This energy is 0.000480327 and Call times are: 7247
C	-0.12913	-0.546705	1.08469
N	-0.131774	-0.863024	2.46316
H	0.224254	-0.183283	3.15063
H	-0.487922	-1.77202	2.79333
N	0.344612	0.657614	0.667464
C	0.358131	0.985951	-0.651187
O	0.787366	2.07079	-1.00088
N	-0.111255	0.0960549	-1.58616
C	-0.591809	-1.11646	-1.20347
H	-0.101149	0.34796	-2.6005
C	-0.610586	-1.4641	0.14613
H	-0.960204	-1.81294	-1.94605
H	-0.992421	-2.42882	0.455857
C	5.70035	0.882492	0.667468
O	6.44089	1.53007	1.42811
N	5.74075	1.16283	-0.748501
C	4.98574	0.535742	-1.72107
H	6.39877	1.89252	-0.993731
N	5.15399	0.9302	-3.01661
H	5.79788	1.65033	-3.29335
H	4.59926	0.467887	-3.71738
N	4.11177	-0.424975	-1.44764
C	4.03551	-0.72779	-0.1189
C	4.75168	-0.156122	0.940157
N	4.38341	-0.745509	2.15174
C	3.47055	-1.64723	1.83189
N	3.22154	-1.6766	0.456437
H	2.96093	-2.2968	2.52333
H	2.57582	-2.26894	-0.0405368
