29
  This energy is -0.00133705 and Call times are: 5968
C	0.500512	1.10651	0.131255
N	1.27577	2.28071	-0.011939
H	1.97043	2.35284	-0.769336
H	1.155	3.07278	0.636264
N	0.673544	0.0715055	-0.733448
C	-0.0585939	-1.06752	-0.617556
O	0.114165	-1.98124	-1.4041
N	-0.990585	-1.18686	0.384226
C	-1.18896	-0.171376	1.26572
H	-1.55401	-2.0626	0.473909
C	-0.443905	1.00148	1.15661
H	-1.92538	-0.272483	2.05293
H	-0.598347	1.81315	1.85643
C	7.85387	0.635941	-0.151555
O	8.92417	1.26404	-0.0723075
N	7.58392	-0.131646	-1.3445
C	6.44832	-0.88043	-1.58719
H	8.32728	-0.0806704	-2.03035
N	6.36083	-1.54526	-2.77576
H	7.07992	-1.51566	-3.47703
H	5.52978	-2.08733	-2.94326
N	5.44912	-0.97712	-0.718964
C	5.656	-0.267407	0.428459
C	6.76389	0.517827	0.77096
N	6.58977	1.08011	2.03763
C	5.4097	0.645996	2.44716
N	4.79761	-0.181121	1.50061
H	4.94693	0.882349	3.39042
H	3.90189	-0.637147	1.56791
