29
  This energy is -0.00127679 and Call times are: 9222
C	-0.102184	-0.772645	-0.940578
N	-0.0594135	-1.90093	-1.79229
H	0.343984	-2.78751	-1.45664
H	-0.429279	-1.84892	-2.75282
N	0.390534	-0.859881	0.323744
C	0.361369	0.209479	1.16187
O	0.808735	0.107186	2.29005
N	-0.171421	1.40189	0.736772
C	-0.672564	1.52362	-0.520857
H	-0.194168	2.22472	1.38087
C	-0.647998	0.433653	-1.38918
H	-1.09101	2.46669	-0.849121
H	-1.04601	0.525751	-2.39193
C	6.09709	-1.32465	-0.0962971
O	5.79644	-2.53033	-0.143885
N	5.05465	-0.34005	-0.266828
C	5.22243	1.03121	-0.241022
H	4.13934	-0.747335	-0.414808
N	4.12017	1.81531	-0.421403
H	3.19867	1.44331	-0.570385
H	4.2528	2.81259	-0.401439
N	6.4015	1.60996	-0.0502331
C	7.42282	0.719916	0.116473
C	7.35988	-0.67911	0.107892
N	8.62867	-1.22528	0.314816
C	9.43399	-0.18441	0.44435
N	8.74677	1.02788	0.331221
H	10.496	-0.230366	0.616853
H	9.12584	1.95926	0.39167
