29
  This energy is 0.000322418 and Call times are: 7491
C	-0.583312	-0.403498	-0.994508
N	-1.40029	-0.528901	-2.14215
H	-1.97524	0.265801	-2.45726
H	-1.42932	-1.41182	-2.67294
N	-0.557708	0.769169	-0.306695
C	0.218664	0.915483	0.799049
O	0.225048	1.97557	1.3987
N	0.993642	-0.129941	1.23827
C	0.991725	-1.31597	0.574248
H	1.59098	-0.0180692	2.08862
C	0.199448	-1.47759	-0.561001
H	1.60517	-2.13573	0.926261
H	0.194572	-2.42047	-1.09331
C	9.15496	1.17764	-0.835842
O	9.26979	2.04332	-1.72114
N	9.43492	1.54089	0.533415
C	9.35485	0.701035	1.62768
H	9.70945	2.50953	0.642719
N	9.65709	1.21636	2.85463
H	9.93257	2.17213	2.99736
H	9.59631	0.596686	3.64511
N	8.99976	-0.574337	1.53338
C	8.72405	-0.968372	0.255967
C	8.77418	-0.201432	-0.914758
N	8.41844	-0.976702	-2.02081
C	8.16122	-2.17757	-1.53042
N	8.33299	-2.2258	-0.143733
H	7.8543	-3.03657	-2.10285
H	8.20186	-3.01654	0.466457
