29
  This energy is -0.00492415 and Call times are: 7156
C	0.380588	-0.427538	1.07911
N	0.460782	-0.993096	2.37293
H	-0.392099	-1.32428	2.84656
H	1.36832	-1.07966	2.85357
N	-0.825533	-0.321453	0.46031
C	-0.929697	0.218053	-0.782635
O	-2.02102	0.302527	-1.31674
N	0.193352	0.666502	-1.43384
C	1.41465	0.575528	-0.844148
H	0.113935	1.08153	-2.38981
C	1.53362	0.0240468	0.430343
H	2.29562	0.931101	-1.36347
H	2.50434	-0.0505502	0.904198
C	7.52562	1.39636	-0.414639
O	7.36607	2.56414	-0.811101
N	8.84191	0.978036	0.0067625
C	9.18374	-0.277719	0.47087
H	9.5372	1.71082	-0.0651162
N	10.4827	-0.497846	0.82678
H	11.1964	0.207009	0.767676
H	10.7217	-1.41564	1.16303
N	8.30759	-1.26841	0.582481
C	7.04507	-0.923151	0.195295
C	6.5966	0.31308	-0.286278
N	5.23055	0.258134	-0.572325
C	4.86581	-0.976904	-0.271688
N	5.93746	-1.73983	0.201867
H	3.87131	-1.37861	-0.368367
H	5.92557	-2.70298	0.496831
