29
  This energy is -0.00662839 and Call times are: 2543
C	0.443749	1.01361	0.517485
N	0.614163	2.20983	1.25253
H	-0.171709	2.60299	1.79034
H	1.5214	2.69872	1.2582
N	-0.760527	0.382269	0.521718
C	-0.95032	-0.768284	-0.176162
O	-2.03811	-1.31577	-0.157177
N	0.0824931	-1.31136	-0.900579
C	1.29927	-0.706065	-0.926519
H	-0.0628067	-2.19623	-1.43753
C	1.50557	0.474306	-0.214638
H	2.10884	-1.1399	-1.49977
H	2.47306	0.960156	-0.232241
C	5.75779	-0.375306	-0.219931
O	4.53505	-0.600939	-0.201611
N	6.52583	-0.794396	-1.3687
C	7.88531	-0.619365	-1.54285
H	5.9671	-1.25145	-2.07899
N	8.44831	-1.0809	-2.69713
H	7.92267	-1.53833	-3.42116
H	9.43899	-0.949136	-2.81429
N	8.65747	-0.0265898	-0.640655
C	7.97736	0.388982	0.467419
C	6.6097	0.261253	0.740331
N	6.30723	0.81727	1.98544
C	7.46052	1.26746	2.45016
N	8.5129	1.03069	1.56068
H	7.60605	1.76154	3.39592
H	9.48374	1.2736	1.67583
