29
  This energy is -0.0019018 and Call times are: 2742
C	-1.07757	0.197843	0.540195
N	-2.16481	0.242805	1.4436
H	-2.08259	-0.19171	2.37411
H	-3.04649	0.708175	1.18245
N	0.0780805	-0.420537	0.902094
C	1.13733	-0.477599	0.0526498
O	2.16219	-1.03703	0.399211
N	1.05128	0.0944218	-1.19307
C	-0.0891558	0.720471	-1.58683
H	1.86559	0.0508997	-1.84685
C	-1.18191	0.785192	-0.724099
H	-0.149814	1.16916	-2.57031
H	-2.09252	1.2828	-1.03327
C	7.31237	-0.80899	-0.0563264
O	8.31541	-1.52213	0.121619
N	7.01551	-0.345898	-1.39147
C	5.94534	0.449047	-1.75474
H	7.68408	-0.662474	-2.08312
N	5.81948	0.79291	-3.06937
H	6.46475	0.49578	-3.78007
H	5.0372	1.37245	-3.32376
N	5.04444	0.887421	-0.884244
C	5.28094	0.476346	0.395662
C	6.3288	-0.324792	0.866276
N	6.21341	-0.517772	2.24482
C	5.12635	0.148646	2.59539
N	4.51911	0.774135	1.50234
H	4.72941	0.221043	3.59387
H	3.68485	1.33877	1.50052
