29
  This energy is -0.00304153 and Call times are: 2587
C	-0.900898	0.491053	0.662842
N	-2.06652	0.710529	1.43317
H	-2.69371	-0.0753138	1.65788
H	-2.30007	1.65384	1.77632
N	-0.608783	-0.760453	0.218666
C	0.504842	-0.997929	-0.523138
O	0.745554	-2.12752	-0.90977
N	1.35591	0.0338658	-0.835395
C	1.09387	1.29711	-0.407445
H	2.21257	-0.148098	-1.40587
C	-0.0452566	1.55255	0.35397
H	1.76924	2.10557	-0.657418
H	-0.258242	2.55718	0.697155
C	5.57726	0.665376	0.25469
O	4.45295	1.05697	0.613755
N	6.31757	1.45608	-0.700259
C	7.57222	1.16086	-1.19811
H	5.82559	2.29013	-0.99673
N	8.12407	2.02503	-2.09868
H	7.66293	2.86056	-2.41332
H	9.03777	1.80099	-2.45574
N	8.25466	0.0806202	-0.83907
C	7.59622	-0.70236	0.0645174
C	6.33117	-0.494437	0.628187
N	6.01588	-1.52841	1.51274
C	7.06173	-2.33714	1.48294
N	8.05553	-1.87775	0.613425
H	7.167	-3.24785	2.04798
H	8.94423	-2.30691	0.411339
