29
  This energy is -0.0012586 and Call times are: 2279
C	0.307655	1.13396	-0.334046
N	1.00075	2.33365	-0.61802
H	2.01494	2.39773	-0.448571
H	0.501613	3.15249	-0.995511
N	0.982802	0.0637173	0.163592
C	0.340342	-1.10032	0.444808
O	0.966432	-2.04547	0.889904
N	-1.01138	-1.20953	0.227265
C	-1.71676	-0.159051	-0.269249
H	-1.5061	-2.10452	0.443325
C	-1.06848	1.0397	-0.561365
H	-2.78212	-0.252363	-0.438193
H	-1.6261	1.87929	-0.957033
C	8.99686	1.27229	-0.511735
O	9.38222	2.43327	-0.735263
N	9.02802	0.309291	-1.5873
C	8.6365	-1.01313	-1.5032
H	9.37707	0.69195	-2.45754
N	8.73409	-1.7831	-2.62568
H	9.07593	-1.4346	-3.504
H	8.44604	-2.7446	-2.55437
N	8.1734	-1.55837	-0.385251
C	8.12376	-0.686859	0.664069
C	8.49428	0.663558	0.684053
N	8.29161	1.20572	1.95524
C	7.81212	0.209848	2.68122
N	7.69028	-0.968923	1.93934
H	7.53836	0.266584	3.72122
H	7.353	-1.86401	2.25536
