29
  This energy is 5.4042e-05 and Call times are: 1667
C	0.458706	-0.11121	-1.12665
N	1.0006	0.129279	-2.41069
H	1.17997	1.09416	-2.72412
H	1.22081	-0.653768	-3.04352
N	0.174447	0.934417	-0.305213
C	-0.346728	0.730342	0.933157
O	-0.593148	1.68283	1.65109
N	-0.594482	-0.547021	1.37291
C	-0.322047	-1.61494	0.577342
H	-0.995298	-0.704669	2.32523
C	0.212611	-1.41777	-0.694617
H	-0.519946	-2.61906	0.930629
H	0.431293	-2.26531	-1.33201
C	4.61385	-1.18976	0.843658
O	4.62891	-2.05481	1.73685
N	4.59018	-1.6144	-0.53631
C	4.57151	-0.783491	-1.64013
H	4.5877	-2.62119	-0.645585
N	4.55059	-1.36066	-2.87656
H	4.5475	-2.3553	-3.01954
H	4.53763	-0.747126	-3.67403
N	4.57369	0.540421	-1.54624
C	4.59607	0.99361	-0.258921
C	4.61592	0.240951	0.921933
N	4.63508	1.08293	2.03622
C	4.62717	2.30899	1.54078
N	4.60339	2.30978	0.142866
H	4.63742	3.2187	2.11703
H	4.59323	3.10694	-0.472963
