29
  This energy is -0.000877491 and Call times are: 1556
C	-1.07072	0.470164	-0.352995
N	-2.34271	1.08667	-0.400268
H	-2.78071	1.43611	0.464286
H	-2.84273	1.19254	-1.2952
N	-0.425788	0.339206	0.836878
C	0.797031	-0.249253	0.909404
O	1.35527	-0.355217	1.98668
N	1.40081	-0.722836	-0.229715
C	0.783949	-0.608127	-1.4355
H	2.34127	-1.17551	-0.174631
C	-0.470287	-0.00644637	-1.52202
H	1.2659	-0.983751	-2.32929
H	-0.965633	0.0872182	-2.48028
C	5.99105	1.44785	0.139046
O	5.75909	2.66791	0.0759427
N	6.87109	0.959249	1.17442
C	7.22829	-0.3597	1.37923
H	7.22872	1.69212	1.77491
N	8.07531	-0.641483	2.41145
H	8.44773	0.0615868	3.02525
H	8.32986	-1.6048	2.55204
N	6.78504	-1.35322	0.618958
C	5.94742	-0.942631	-0.37747
C	5.52482	0.360331	-0.669026
N	4.66633	0.359128	-1.77082
C	4.57418	-0.909252	-2.13338
N	5.33809	-1.74589	-1.3141
H	3.98992	-1.2859	-2.95589
H	5.4387	-2.74622	-1.3776
