29
  This energy is -0.00428407 and Call times are: 6286
C	0.649307	0.0129661	1.03457
N	1.16373	-0.239376	2.32761
H	0.732579	-0.960076	2.92437
H	1.97113	0.292017	2.68518
N	-0.416628	-0.69808	0.579505
C	-0.929869	-0.474975	-0.658896
O	-1.88521	-1.12453	-1.04465
N	-0.371944	0.480668	-1.47246
C	0.694345	1.20949	-1.04885
H	-0.766188	0.652749	-2.42503
C	1.22915	0.989384	0.219281
H	1.129	1.96117	-1.6956
H	2.07848	1.56744	0.561165
C	5.46194	0.086239	1.30878
O	4.84648	-0.0534646	2.38024
N	6.14362	1.33371	1.05514
C	6.86782	1.64585	-0.0794321
H	6.04917	2.0024	1.8098
N	7.44825	2.8789	-0.150278
H	7.37392	3.56486	0.580268
H	7.97305	3.09685	-0.980719
N	7.01917	0.80249	-1.09304
C	6.39175	-0.394545	-0.901962
C	5.63795	-0.808332	0.203426
N	5.16386	-2.10801	0.0110123
C	5.61909	-2.46753	-1.17736
N	6.37543	-1.45625	-1.77736
H	5.44622	-3.4174	-1.65447
H	6.83031	-1.47744	-2.67593
