29
  This energy is -0.00623526 and Call times are: 2609
C	0.637164	0.0735823	-1.03958
N	1.35652	0.521356	-2.17195
H	1.51523	1.52863	-2.31898
H	1.72784	-0.151368	-2.85876
N	0.1547	0.975746	-0.143908
C	-0.539593	0.571507	0.952166
O	-0.961971	1.39826	1.7405
N	-0.763763	-0.766026	1.16935
C	-0.295466	-1.6945	0.294006
H	-1.29766	-1.0776	2.01215
C	0.417884	-1.29162	-0.833574
H	-0.475978	-2.74716	0.471642
H	0.792917	-2.02751	-1.53373
C	4.67343	1.2591	-0.514653
O	4.30751	2.26055	-1.15459
N	4.38487	1.19246	0.898672
C	4.72161	0.155051	1.74694
H	3.88985	2.00516	1.24515
N	4.368	0.260857	3.06075
H	3.87681	1.05297	3.43631
H	4.61815	-0.499522	3.67049
N	5.36938	-0.929025	1.33859
C	5.66647	-0.914702	0.00645165
C	5.37215	0.0805064	-0.933891
N	5.84709	-0.28531	-2.19546
C	6.4121	-1.46803	-2.02036
N	6.32883	-1.8978	-0.692548
H	6.88787	-2.05584	-2.78709
H	6.67859	-2.75695	-0.29969
