29
  This energy is -0.00336361 and Call times are: 3384
C	-0.649893	-0.968391	-0.363271
N	-1.26731	-1.99498	-1.11506
H	-1.11385	-2.05527	-2.13203
H	-1.87422	-2.69023	-0.656353
N	0.147727	-0.059845	-0.985554
C	0.752526	0.936075	-0.286131
O	1.46262	1.73824	-0.865521
N	0.562827	1.03677	1.07044
C	-0.228212	0.145243	1.72391
H	1.02769	1.80249	1.60896
C	-0.853594	-0.880296	1.01697
H	-0.373201	0.230785	2.79344
H	-1.48466	-1.59287	1.53311
C	5.65195	-1.41914	-0.30072
O	5.86345	-2.64379	-0.343534
N	5.10055	-0.76685	-1.46505
C	4.80881	0.578948	-1.57853
H	4.93239	-1.40034	-2.23706
N	4.28998	1.02498	-2.7593
H	4.11119	0.423269	-3.54399
H	4.08138	2.00667	-2.83221
N	5.01177	1.44627	-0.594597
C	5.53369	0.877989	0.531336
C	5.86304	-0.465853	0.747969
N	6.37188	-0.641216	2.03687
C	6.35001	0.563439	2.5819
N	5.8465	1.5276	1.70349
H	6.67387	0.806669	3.57975
H	5.72646	2.5133	1.87319
