29
  This energy is -0.00273381 and Call times are: 3570
C	0.0585457	1.14888	-0.410805
N	0.122409	2.55713	-0.524823
H	0.130887	3.14483	0.321316
H	0.160944	3.00847	-1.45054
N	0.00834733	0.570919	0.818965
C	-0.053466	-0.779743	0.955795
O	-0.0976273	-1.27448	2.06786
N	-0.0660274	-1.58376	-0.157675
C	-0.0169796	-1.03887	-1.40197
H	-0.113546	-2.62263	-0.0531365
C	0.046602	0.345078	-1.55451
H	-0.0272508	-1.67885	-2.27521
H	0.0858295	0.783801	-2.54365
C	4.19594	-0.0601533	-0.0976981
O	2.99047	-0.330329	-0.239816
N	4.5677	1.27933	0.293173
C	5.85586	1.73789	0.491965
H	3.77341	1.89481	0.419157
N	6.02249	3.04112	0.860989
H	5.25634	3.67751	0.994367
H	6.96436	3.36562	1.00282
N	6.92671	0.968814	0.339141
C	6.62822	-0.310535	-0.0313145
C	5.36546	-0.872475	-0.257088
N	5.48771	-2.21539	-0.621191
C	6.78799	-2.45615	-0.615209
N	7.52937	-1.32485	-0.261271
H	7.25267	-3.39889	-0.849865
H	8.5304	-1.24362	-0.182983
