29
  This energy is 0.0041658 and Call times are: 5791
C	-1.1659	0.303186	-0.202163
N	-2.37189	0.993896	-0.464363
H	-2.36328	2.01422	-0.606768
H	-3.26771	0.486919	-0.515568
N	0.0066466	0.988715	-0.138277
C	1.17906	0.348759	0.11219
O	2.21677	0.984204	0.16467
N	1.19254	-1.01098	0.305447
C	0.0384528	-1.72682	0.248353
H	2.0939	-1.50378	0.49811
C	-1.16992	-1.0812	-0.00782395
H	0.0566655	-2.79844	0.401708
H	-2.09185	-1.64714	-0.0542576
C	5.36653	0.438658	1.36187
O	5.21699	1.01139	2.45547
N	4.92675	-0.930144	1.22709
C	5.02085	-1.70337	0.085848
H	4.52089	-1.30583	2.07545
N	4.55219	-2.98395	0.13883
H	4.14414	-3.38687	0.964003
H	4.62569	-3.53911	-0.6972
N	5.54429	-1.25448	-1.0482
C	5.97654	0.0380159	-0.97275
C	5.92763	0.902693	0.127818
N	6.4728	2.14512	-0.20399
C	6.84023	2.03241	-1.4693
N	6.55897	0.764194	-1.98628
H	7.30303	2.80518	-2.05954
H	6.7387	0.424412	-2.91743
