29
  This energy is -5.1806e-05 and Call times are: 7711
C	0.351976	0.053559	-1.16848
N	0.996213	-0.14668	-2.41151
H	1.75333	-0.840251	-2.49603
H	0.716919	0.396056	-3.24191
N	0.733821	-0.671746	-0.0835789
C	0.130944	-0.498447	1.12197
O	0.49023	-1.15985	2.07949
N	-0.88071	0.420349	1.25904
C	-1.28708	1.1621	0.194959
H	-1.34481	0.554116	2.18594
C	-0.676084	0.992956	-1.04628
H	-2.0852	1.88453	0.31042
H	-0.996326	1.5815	-1.89685
C	16.7686	-0.263061	-1.21141
O	17.5547	-0.616868	-2.10763
N	15.6783	0.620793	-1.55085
C	14.7236	1.10363	-0.676417
H	15.6604	0.876823	-2.53049
N	13.7608	1.93348	-1.17304
H	13.7146	2.20675	-2.13893
H	13.0704	2.28019	-0.528239
N	14.7066	0.795745	0.614504
C	15.7199	-0.0394697	0.987067
C	16.7315	-0.582213	0.18495
N	17.5767	-1.39152	0.947621
C	17.0882	-1.33794	2.17531
N	15.9533	-0.525031	2.25337
H	17.4919	-1.8471	3.03408
H	15.3973	-0.319386	3.06783
