29
  This energy is -4.33e-07 and Call times are: 9266
C	-1.01533	-0.574082	-0.362831
N	-2.17706	-0.988364	-1.05493
H	-2.4719	-0.497224	-1.91124
H	-2.73842	-1.78178	-0.712139
N	-0.28703	0.474845	-0.829974
C	0.833035	0.892601	-0.183626
O	1.46909	1.83459	-0.62121
N	1.24573	0.253502	0.959899
C	0.541053	-0.798481	1.45422
H	2.10709	0.574289	1.45748
C	-0.609238	-1.2357	0.799781
H	0.87233	-1.29748	2.35615
H	-1.17391	-2.07325	1.18971
C	8.38962	-1.04872	0.0823411
O	7.67867	-2.06777	0.0329858
N	7.8861	0.11883	0.766799
C	8.54808	1.32316	0.910032
H	6.96119	-0.0136577	1.15741
N	7.91789	2.32394	1.59094
H	7.00119	2.22516	1.99052
H	8.40798	3.19725	1.6894
N	9.76017	1.54299	0.415995
C	10.2817	0.4671	-0.242462
C	9.69747	-0.789861	-0.442612
N	10.558	-1.61734	-1.1676
C	11.631	-0.879616	-1.39817
N	11.5129	0.402711	-0.853725
H	12.5074	-1.19791	-1.93709
H	12.1856	1.15174	-0.889171
