29
  This energy is -0.00311044 and Call times are: 6529
C	-0.312063	1.09435	-0.44398
N	-1.01063	2.25556	-0.848778
H	-2.02728	2.32668	-0.697882
H	-0.513077	3.03909	-1.29672
N	-0.985173	0.0705038	0.145552
C	-0.337472	-1.05593	0.543625
O	-0.961824	-1.95981	1.06953
N	1.01759	-1.17366	0.352917
C	1.72106	-0.169118	-0.233269
H	1.51634	-2.03973	0.658853
C	1.06741	0.990778	-0.645571
H	2.78906	-0.268882	-0.380398
H	1.62349	1.79371	-1.113
C	6.4796	-1.39804	0.408174
O	6.38719	-2.53225	0.909547
N	7.41203	-1.18945	-0.674529
C	7.63302	0.00346801	-1.33579
H	7.92194	-2.02606	-0.930768
N	8.5569	0.0180257	-2.34007
H	9.07945	-0.793753	-2.61883
H	8.71099	0.891585	-2.81514
N	6.98912	1.1245	-1.0354
C	6.0939	0.979995	-0.01521
C	5.7963	-0.176798	0.715935
N	4.81956	0.0922461	1.67746
C	4.53642	1.37554	1.53008
N	5.28782	1.96463	0.508754
H	3.81881	1.93047	2.11046
H	5.26167	2.92262	0.198307
