29
  This energy is -0.0103252 and Call times are: 3988
C	-0.473761	-0.789378	-0.802834
N	-1.01039	-1.40855	-1.95562
H	-1.13321	-0.867547	-2.82375
H	-1.28299	-2.40232	-1.94001
N	-0.119612	0.522846	-0.842049
C	0.398173	1.14128	0.251695
O	0.708059	2.31765	0.192412
N	0.571136	0.440617	1.42027
C	0.22764	-0.872458	1.49401
H	0.969322	0.915649	2.26183
C	-0.304306	-1.51716	0.378657
H	0.36679	-1.41848	2.41852
H	-0.579439	-2.56301	0.432518
C	4.2286	0.65741	0.661622
O	3.37478	1.15041	1.41944
N	4.05873	0.80068	-0.765195
C	4.91254	0.31379	-1.73633
H	3.22268	1.31241	-1.01964
N	4.59386	0.542941	-3.04334
H	3.77273	1.04663	-3.32935
H	5.22162	0.183935	-3.74303
N	6.01887	-0.36163	-1.45102
C	6.22543	-0.524845	-0.111701
C	5.42729	-0.0738506	0.947018
N	5.98647	-0.445941	2.17168
C	7.09084	-1.10307	1.8598
N	7.28307	-1.17947	0.477073
H	7.7809	-1.53941	2.56208
H	8.04137	-1.62268	-0.016244
