29
  This energy is -0.000876072 and Call times are: 4694
C	-0.180777	0.746601	0.949745
N	-0.0696207	1.46508	2.16287
H	0.740178	1.31365	2.78151
H	-0.793527	2.14432	2.43989
N	0.784127	-0.145546	0.600569
C	0.700984	-0.848523	-0.559492
O	1.57767	-1.64217	-0.850934
N	-0.369234	-0.663679	-1.40026
C	-1.35144	0.220285	-1.08172
H	-0.433781	-1.20401	-2.29261
C	-1.2768	0.946811	0.105373
H	-2.19216	0.360814	-1.74931
H	-2.05677	1.65211	0.363439
C	6.06739	0.846451	1.18204
O	5.98864	1.68062	2.10089
N	7.09619	-0.164808	1.24623
C	7.31617	-1.15816	0.311336
H	7.67868	-0.0917727	2.07143
N	8.33948	-2.03303	0.53441
H	8.93547	-1.98827	1.34222
H	8.49192	-2.75245	-0.152422
N	6.57931	-1.29326	-0.784263
C	5.59037	-0.358706	-0.892363
C	5.28476	0.682411	-0.00693057
N	4.19692	1.42029	-0.479242
C	3.85641	0.840167	-1.61777
N	4.67667	-0.252091	-1.91588
H	3.04968	1.14717	-2.26174
H	4.62769	-0.858746	-2.71861
