29
  This energy is 0.000513973 and Call times are: 6242
C	-0.611605	0.0535044	1.05602
N	-1.00948	0.28073	2.39405
H	-0.368332	0.746375	3.05247
H	-1.94007	-0.015389	2.72337
N	0.620098	0.451144	0.639272
C	1.02652	0.244608	-0.640961
O	2.13448	0.609637	-0.991063
N	0.189247	-0.374186	-1.53678
C	-1.04865	-0.7843	-1.15337
H	0.501204	-0.533327	-2.52155
C	-1.47623	-0.5778	0.157032
H	-1.7033	-1.27143	-1.86496
H	-2.46144	-0.902733	0.467159
C	8.24155	-0.187466	1.0981
O	9.15965	-0.174926	1.9367
N	7.17523	-1.14964	1.2477
C	6.08825	-1.29263	0.406759
H	7.28518	-1.74656	2.05837
N	5.17235	-2.26024	0.702031
H	5.25173	-2.86857	1.49789
H	4.38467	-2.3568	0.0833361
N	5.902	-0.534074	-0.666305
C	6.88546	0.393864	-0.852847
C	8.02099	0.619858	-0.0649341
N	8.78218	1.66401	-0.595276
C	8.12386	2.05636	-1.67296
N	6.95756	1.31231	-1.87513
H	8.4228	2.85009	-2.33657
H	6.28452	1.411	-2.61814
