29
  This energy is 0.00164578 and Call times are: 8064
C	-0.0661701	0.927041	0.79267
N	-0.476063	2.04483	1.55608
H	-1.40144	2.4688	1.3969
H	0.143057	2.44538	2.27606
N	-0.896434	0.411975	-0.152983
C	-0.526494	-0.661408	-0.899859
O	-1.28732	-1.10514	-1.74107
N	0.702292	-1.24349	-0.705724
C	1.5567	-0.753846	0.231202
H	0.987424	-2.06905	-1.2798
C	1.18806	0.346577	1.00307
H	2.52377	-1.21779	0.378738
H	1.86526	0.74021	1.75064
C	9.82694	0.0883906	-1.23371
O	9.36877	0.216104	-2.38266
N	8.92642	-0.259902	-0.15995
C	9.27515	-0.438144	1.16511
H	7.96642	-0.371287	-0.462547
N	8.28861	-0.766747	2.0489
H	7.32719	-0.884746	1.78149
H	8.55255	-0.893877	3.01156
N	10.5191	-0.30316	1.60784
C	11.4112	0.0269198	0.628943
C	11.1626	0.229136	-0.734363
N	12.3455	0.553098	-1.40264
C	13.2811	0.546497	-0.468101
N	12.7625	0.230719	0.791263
H	14.326	0.754923	-0.624778
H	13.2616	0.160048	1.6634
