29
  This energy is 0.00124933 and Call times are: 2257
C	1.16659	-0.349972	-0.0932967
N	2.56742	-0.485299	0.0467357
H	3.0852	0.132008	0.688801
H	3.08286	-1.19901	-0.489051
N	0.503217	0.597375	0.621801
C	-0.842382	0.747884	0.505436
O	-1.41467	1.60357	1.15635
N	-1.55404	-0.0633387	-0.344201
C	-0.922272	-1.02048	-1.07382
H	-2.58896	0.0518861	-0.434156
C	0.457407	-1.18399	-0.962652
H	-1.48972	-1.65634	-1.74159
H	0.965125	-1.94505	-1.54181
C	11.3987	0.386148	-0.647407
O	12.3275	0.823604	-1.34902
N	11.7186	-0.418689	0.508044
C	10.8081	-0.976744	1.38477
H	12.7137	-0.553373	0.639256
N	11.2907	-1.71255	2.42783
H	12.2712	-1.8652	2.58637
H	10.6197	-2.11518	3.06039
N	9.49583	-0.827374	1.25344
C	9.1405	-0.0726279	0.173087
C	9.97884	0.534474	-0.770269
N	9.22316	1.22096	-1.72348
C	7.96434	1.03273	-1.36475
N	7.859	0.248906	-0.21182
H	7.10091	1.42229	-1.87709
H	7.01857	-0.0381536	0.263672
