29
  This energy is -0.00380857 and Call times are: 1090
C	0.369918	0.277834	-1.13052
N	1.12915	0.508691	-2.30122
H	2.14762	0.353385	-2.29635
H	0.674438	0.833059	-3.16733
N	0.987011	-0.15007	0.00305124
C	0.280398	-0.379219	1.14104
O	0.855238	-0.762239	2.14416
N	-1.0783	-0.179108	1.15875
C	-1.72673	0.24822	0.043169
H	-1.62235	-0.35517	2.03365
C	-1.01239	0.486496	-1.12967
H	-2.79797	0.403832	0.064487
H	-1.52449	0.826986	-2.02087
C	7.68408	-0.0784896	-0.254397
O	8.85716	-0.0322665	-0.664385
N	7.41237	-0.728369	1.00617
C	6.171	-0.863714	1.59764
H	8.24225	-1.09914	1.45272
N	6.09958	-1.51089	2.79697
H	6.90312	-1.8901	3.2663
H	5.19109	-1.60478	3.21931
N	5.05654	-0.394376	1.05058
C	5.26006	0.230365	-0.145807
C	6.4689	0.420034	-0.826997
N	6.25169	1.10878	-2.02256
C	4.94816	1.32801	-2.06101
N	4.29589	0.811142	-0.937569
H	4.42088	1.83977	-2.84831
H	3.31147	0.845047	-0.726459
