29
  This energy is -0.00352269 and Call times are: 8540
C	0.892539	-0.290286	-0.781804
N	1.87646	-0.963455	-1.54272
H	2.03446	-1.97248	-1.40736
H	2.44315	-0.454812	-2.23719
N	0.154305	-0.977767	0.129936
C	-0.797145	-0.354511	0.873661
O	-1.44587	-0.991368	1.68419
N	-1.02572	0.989985	0.710874
C	-0.305726	1.70729	-0.191718
H	-1.75734	1.46994	1.28255
C	0.672661	1.07873	-0.960019
H	-0.49136	2.76684	-0.314666
H	1.24878	1.64591	-1.6803
C	4.92346	0.831691	-0.618033
O	3.97602	1.57424	-0.929993
N	5.76424	0.299202	-1.66432
C	6.85086	-0.535327	-1.48545
H	5.48681	0.597034	-2.59163
N	7.53441	-0.944038	-2.59362
H	7.2855	-0.667041	-3.52694
H	8.32381	-1.55198	-2.45295
N	7.25159	-0.951355	-0.290506
C	6.48726	-0.474759	0.735032
C	5.37309	0.370577	0.661909
N	4.87077	0.626381	1.93987
C	5.6601	-0.04619	2.76043
N	6.66421	-0.736114	2.0745
H	5.56796	-0.0796396	3.83288
H	7.38834	-1.31829	2.46376
