29
  This energy is -0.00454671 and Call times are: 4322
C	0.556863	1.08642	-0.0414081
N	0.855865	2.46511	-0.141712
H	0.100587	3.14831	-0.297298
H	1.82727	2.79968	-0.0607257
N	-0.73075	0.663335	-0.15071
C	-1.04458	-0.65566	-0.0580077
O	-2.20525	-1.01066	-0.15911
N	-0.0547331	-1.58501	0.149167
C	1.2428	-1.19638	0.263013
H	-0.295423	-2.59961	0.22057
C	1.57652	0.153626	0.16959
H	2.01784	-1.93456	0.426251
H	2.60871	0.468069	0.259631
C	6.87105	-0.0876785	-1.42897
O	6.43653	-0.0575926	-2.59372
N	8.16299	-0.684047	-1.18319
C	8.78389	-0.795585	0.0461251
H	8.60842	-1.03478	-2.02233
N	10.0106	-1.39163	0.0928645
H	10.4797	-1.74986	-0.720409
H	10.4543	-1.46854	0.99274
N	8.2395	-0.350907	1.17194
C	7.01406	0.222983	0.993034
C	6.30188	0.384976	-0.201901
N	5.08282	1.02242	0.0399419
C	5.06075	1.23848	1.34438
N	6.21758	0.768824	1.97358
H	4.26306	1.71601	1.88791
H	6.44635	0.810595	2.95375
