29
  This energy is -4.8897e-05 and Call times are: 7954
C	-0.4126	-0.608488	-0.975506
N	-0.592317	-1.52237	-2.03983
H	0.0807379	-2.28922	-2.1825
H	-1.39416	-1.43175	-2.6809
N	0.651287	-0.743681	-0.139588
C	0.846654	0.120977	0.890474
O	1.80703	-0.0203645	1.62606
N	-0.0371774	1.1511	1.10051
C	-1.11124	1.31517	0.283773
H	0.112493	1.81645	1.89255
C	-1.32175	0.434529	-0.775837
H	-1.80382	2.1295	0.455362
H	-2.17589	0.561151	-1.42915
C	9.23672	-0.847749	0.022181
O	10.3262	-1.4213	0.196802
N	8.29934	-1.40693	-0.92325
C	7.05384	-0.893557	-1.23041
H	8.63706	-2.25006	-1.37118
N	6.2974	-1.55581	-2.15321
H	6.60267	-2.39414	-2.61556
H	5.39219	-1.17377	-2.37042
N	6.56933	0.207418	-0.669467
C	7.41972	0.776037	0.234173
C	8.69439	0.338561	0.615145
N	9.23992	1.19964	1.57007
C	8.31973	2.13033	1.7593
N	7.18771	1.91761	0.966829
H	8.4011	2.96499	2.43492
H	6.35164	2.47788	0.923309
