29
  This energy is -0.00376702 and Call times are: 2477
C	0.568253	0.447336	0.984422
N	1.50985	0.992144	1.88821
H	2.46505	1.21138	1.57049
H	1.25225	1.17482	2.86923
N	0.926013	0.213051	-0.306318
C	0.0402102	-0.309728	-1.19451
O	0.383798	-0.510803	-2.34556
N	-1.2388	-0.610124	-0.794126
C	-1.62949	-0.388475	0.488771
H	-1.92057	-1.0122	-1.47674
C	-0.729624	0.147293	1.40845
H	-2.63934	-0.627711	0.797309
H	-1.03619	0.325634	2.43149
C	7.14456	-0.966091	-0.79985
O	7.86784	-1.8559	-1.28093
N	6.31832	-0.184075	-1.68922
C	5.46387	0.83542	-1.31545
H	6.41352	-0.449935	-2.66175
N	4.75634	1.47012	-2.29469
H	4.82761	1.23091	-3.26806
H	4.13724	2.21146	-2.01244
N	5.30615	1.21825	-0.0544508
C	6.0677	0.50813	0.828069
C	6.95915	-0.536763	0.554533
N	7.54374	-1.00028	1.73535
C	7.01937	-0.255386	2.69394
N	6.1112	0.681911	2.19251
H	7.24344	-0.335314	3.74426
H	5.57946	1.36308	2.71026
