29
  This energy is 0.000358056 and Call times are: 5012
C	-0.496907	-0.862507	0.708007
N	-0.727108	-1.99437	1.52418
H	0.0461174	-2.63799	1.7462
H	-1.66576	-2.18674	1.90374
N	0.748225	-0.624639	0.216118
C	0.995736	0.455672	-0.570329
O	2.11933	0.647921	-0.999254
N	-0.0192011	1.3277	-0.879971
C	-1.27566	1.11971	-0.404964
H	0.170488	2.15877	-1.48477
C	-1.54128	0.0151387	0.402495
H	-2.07083	1.81133	-0.653175
H	-2.54056	-0.154769	0.783258
C	7.18255	0.518685	1.27498
O	7.624	0.740211	2.4162
N	6.80914	1.63871	0.443536
C	6.30532	1.56267	-0.840812
H	6.95047	2.53544	0.8924
N	6.00491	2.7295	-1.48159
H	6.13321	3.63488	-1.06496
H	5.63812	2.66356	-2.41629
N	6.10353	0.411202	-1.46927
C	6.44161	-0.681014	-0.72372
C	6.95685	-0.712783	0.578132
N	7.17097	-2.03157	0.985432
C	6.79508	-2.77405	-0.0422676
N	6.3412	-1.99729	-1.11248
H	6.82248	-3.84987	-0.0824623
H	6.00149	-2.31669	-2.00545
