29
  This energy is -0.00360876 and Call times are: 5439
C	-0.899197	-0.700982	-0.43838
N	-1.70883	-1.54591	-1.23263
H	-1.37548	-1.86566	-2.15353
H	-2.63614	-1.84939	-0.900754
N	0.321588	-0.310772	-0.892593
C	1.11875	0.500619	-0.148947
O	2.20834	0.836812	-0.576904
N	0.695804	0.939738	1.08179
C	-0.518894	0.568735	1.566
H	1.30842	1.56379	1.65424
C	-1.34497	-0.2631	0.812162
H	-0.845737	0.918753	2.53702
H	-2.31344	-0.561342	1.19364
C	8.20779	0.406874	-0.344007
O	9.42845	0.604861	-0.474825
N	7.28971	1.14103	-1.18267
C	5.91207	1.03699	-1.16173
H	7.75184	1.77359	-1.82445
N	5.19757	1.81119	-2.02917
H	5.6249	2.44834	-2.67816
H	4.19499	1.72858	-2.00586
N	5.26284	0.222466	-0.33917
C	6.08791	-0.495889	0.477102
C	7.48683	-0.465152	0.535114
N	7.95387	-1.35275	1.50721
C	6.86669	-1.90305	2.02096
N	5.69984	-1.41378	1.42614
H	6.84757	-2.64199	2.80413
H	4.74791	-1.66869	1.63508
