29
  This energy is -0.00015122 and Call times are: 7291
C	-0.288294	-1.01792	-0.610602
N	-0.611976	-2.34457	-0.978679
H	-0.678869	-3.0793	-0.259574
H	-0.783539	-2.58959	-1.96491
N	-0.0652628	-0.713131	0.695633
C	0.247281	0.553699	1.07549
O	0.442711	0.802574	2.25161
N	0.342227	1.54992	0.134766
C	0.125484	1.27976	-1.17963
H	0.582556	2.52445	0.426244
C	-0.195697	-0.0157858	-1.58089
H	0.202063	2.07009	-1.91567
H	-0.369234	-0.235878	-2.62677
C	4.30904	0.0248411	-0.841706
O	3.31752	-0.18193	-1.56314
N	4.63939	1.38473	-0.485666
C	5.70225	1.78095	0.303321
H	4.00138	2.06731	-0.876325
N	5.86423	3.11561	0.537333
H	5.24964	3.8181	0.165105
H	6.64144	3.39408	1.11262
N	6.56346	0.923384	0.836673
C	6.29438	-0.378895	0.528879
C	5.2502	-0.88326	-0.25637
N	5.32393	-2.27619	-0.328835
C	6.38318	-2.60232	0.392529
N	7.0119	-1.47934	0.938741
H	6.74502	-3.60285	0.559148
H	7.83257	-1.45535	1.52246
