29
  This energy is 0.00131179 and Call times are: 6507
C	-0.351653	-1.16155	-0.138759
N	-0.590182	-2.46751	-0.626421
H	-0.248069	-2.74219	-1.55858
H	-1.10605	-3.15502	-0.0577813
N	0.330897	-0.267765	-0.903067
C	0.573246	0.993104	-0.457751
O	1.18687	1.77614	-1.1604
N	0.126953	1.38225	0.781525
C	-0.5585	0.513928	1.57131
H	0.313017	2.35184	1.12462
C	-0.812923	-0.781742	1.12508
H	-0.907289	0.82764	2.5471
H	-1.35854	-1.47703	1.75061
C	7.19168	1.43256	-0.27114
O	7.41211	2.60321	-0.62795
N	6.06497	1.16857	0.592594
C	5.68626	-0.0692741	1.0758
H	5.54112	2.00115	0.833345
N	4.58914	-0.133242	1.88486
H	4.0478	0.673133	2.14267
H	4.32175	-1.03907	2.23202
N	6.34115	-1.18711	0.787488
C	7.41785	-0.990849	-0.0281528
C	7.88372	0.213872	-0.569371
N	9.01625	-0.0107217	-1.35541
C	9.22724	-1.31452	-1.28967
N	8.27832	-1.95991	-0.491089
H	10.0248	-1.84662	-1.78014
H	8.21604	-2.94307	-0.280549
