29
  This energy is 0.00071585 and Call times are: 7535
C	0.589018	1.00525	-0.366931
N	0.961512	2.22007	-0.988002
H	0.315102	2.68712	-1.64025
H	1.87868	2.64911	-0.796005
N	-0.625267	0.453885	-0.632259
C	-1.00718	-0.712478	-0.0486734
O	-2.09989	-1.18709	-0.301893
N	-0.162394	-1.35346	0.824198
C	1.05858	-0.829846	1.11167
H	-0.455513	-2.25053	1.27338
C	1.46098	0.365806	0.519131
H	1.71929	-1.34064	1.80071
H	2.43264	0.786822	0.744998
C	10.7776	-1.08664	-0.430895
O	10.2158	-2.14665	-0.758088
N	10.0315	0.147558	-0.502533
C	10.5075	1.40297	-0.176227
H	9.08026	0.0222811	-0.826757
N	9.65874	2.46378	-0.305188
H	8.70996	2.3738	-0.623742
H	10.015	3.37386	-0.0656001
N	11.7453	1.61574	0.25278
C	12.4938	0.477506	0.338035
C	12.1094	-0.83433	0.0337436
N	13.1693	-1.71657	0.255208
C	14.165	-0.957601	0.680983
N	13.8042	0.391402	0.749548
H	15.148	-1.30516	0.950719
H	14.3756	1.16826	1.04075
