29
  This energy is -0.00536484 and Call times are: 9089
C	-0.0722458	-1.10934	0.506222
N	-0.454504	-2.24714	1.25425
H	-1.28785	-2.21265	1.85902
H	0.0933869	-3.11852	1.20288
N	-0.807312	0.0317709	0.586481
C	-0.4614	1.1387	-0.121956
O	-1.13539	2.14933	-0.0338289
N	0.645466	1.11668	-0.93484
C	1.40248	-0.00752118	-1.03829
H	0.91205	1.96767	-1.47998
C	1.05735	-1.14876	-0.316436
H	2.27368	-0.0176005	-1.68105
H	1.65728	-2.04666	-0.395567
C	6.45512	0.474566	-1.33272
O	6.57322	1.01323	-2.44727
N	7.4229	-0.520392	-0.934411
C	7.43249	-1.20808	0.263984
H	8.13536	-0.688827	-1.63414
N	8.42788	-2.11797	0.472893
H	9.14929	-2.30859	-0.200158
H	8.42586	-2.61394	1.34842
N	6.52068	-1.02093	1.2101
C	5.58044	-0.087698	0.881299
C	5.48129	0.660684	-0.298278
N	4.3739	1.51025	-0.244757
C	3.82086	1.28022	0.934211
N	4.5197	0.312067	1.66156
H	2.93827	1.76322	1.31826
H	4.30708	-0.0409046	2.58081
