29
  This energy is -0.0115833 and Call times are: 8890
C	-0.281199	0.552744	-1.05238
N	-0.267504	1.33473	-2.23076
H	0.560437	1.90074	-2.46646
H	-1.08116	1.3469	-2.86318
N	0.801546	0.549006	-0.229863
C	0.813688	-0.193624	0.908198
O	1.79515	-0.180915	1.62928
N	-0.278439	-0.956095	1.24333
C	-1.37733	-0.975331	0.44355
H	-0.269746	-1.52749	2.11847
C	-1.40113	-0.217705	-0.726087
H	-2.23463	-1.57874	0.71406
H	-2.27421	-0.22978	-1.36639
C	6.78851	-0.431745	-1.37708
O	6.82234	-0.880303	-2.53638
N	5.58636	0.224403	-0.91938
C	5.38907	0.773754	0.332999
H	4.85562	0.255651	-1.61982
N	4.18365	1.35783	0.594054
H	3.43824	1.40554	-0.0781409
H	4.04994	1.75544	1.50869
N	6.31651	0.756464	1.28227
C	7.47532	0.145813	0.898405
C	7.77527	-0.439156	-0.338181
N	9.07183	-0.958582	-0.329853
C	9.5404	-0.693914	0.87809
N	8.60403	-0.0201222	1.668
H	10.5207	-0.9524	1.24141
H	8.71183	0.293504	2.61922
