29
  This energy is -0.00919254 and Call times are: 3229
C	0.904672	-0.80573	0.15645
N	2.15856	-1.43173	0.346573
H	3.01446	-0.863269	0.422088
H	2.2295	-2.45785	0.411301
N	0.830333	0.549434	0.0734211
C	-0.362049	1.17534	-0.109048
O	-0.403591	2.39049	-0.180359
N	-1.51656	0.438594	-0.212612
C	-1.47806	-0.917845	-0.133974
H	-2.43395	0.919358	-0.352944
C	-0.260891	-1.57063	0.053038
H	-2.39217	-1.49215	-0.216472
H	-0.225163	-2.65097	0.116294
C	5.85735	-0.911413	0.765988
O	5.31582	-1.83316	1.40117
N	5.1286	0.319412	0.568048
C	5.58616	1.43239	-0.110989
H	4.20602	0.310231	0.985597
N	4.75825	2.51348	-0.20113
H	3.83791	2.53685	0.2016
H	5.10038	3.31882	-0.698036
N	6.78674	1.49065	-0.673822
C	7.51717	0.348616	-0.514795
C	7.14883	-0.827028	0.151157
N	8.18093	-1.76609	0.0890268
C	9.1445	-1.17303	-0.595474
N	8.7893	0.121056	-0.987778
H	10.0997	-1.60671	-0.838781
H	9.34102	0.778533	-1.51516
