29
  This energy is 0.00172855 and Call times are: 2653
C	-0.939628	0.641108	0.445184
N	-1.90598	1.63659	0.719815
H	-1.88385	2.53304	0.212556
H	-2.63894	1.47709	1.42655
N	0.0200378	0.869207	-0.490713
C	0.959953	-0.0707793	-0.773228
O	1.80968	0.156421	-1.61568
N	0.950709	-1.27342	-0.109908
C	0.00554278	-1.53415	0.831512
H	1.6733	-1.99679	-0.326723
C	-0.963403	-0.577639	1.12958
H	0.00441039	-2.4844	1.35042
H	-1.71835	-0.780724	1.87872
C	6.92017	-1.38214	-0.460691
O	7.05713	-2.46909	-1.04901
N	6.42756	-1.38256	0.896704
C	6.22031	-0.266426	1.6844
H	6.23363	-2.3108	1.25213
N	5.74723	-0.454383	2.95057
H	5.5449	-1.36116	3.33343
H	5.59912	0.364635	3.51609
N	6.4602	0.968787	1.26219
C	6.92858	1.02362	-0.0187054
C	7.17218	-0.0404815	-0.896009
N	7.64965	0.435884	-2.11913
C	7.6925	1.75055	-1.98292
N	7.26215	2.16117	-0.717641
H	8.01488	2.44928	-2.73631
H	7.19958	3.10205	-0.363187
