29
  This energy is -0.000849473 and Call times are: 584
C	-0.109927	-1.13309	0.442877
N	-0.465367	-2.48353	0.666972
H	-1.12009	-2.95887	0.0291544
H	-0.0754853	-3.00412	1.46641
N	-0.634279	-0.462078	-0.617167
C	-0.308946	0.835852	-0.854579
O	-0.791421	1.4161	-1.81057
N	0.561715	1.49053	-0.0180571
C	1.10416	0.849527	1.0508
H	0.812354	2.48876	-0.200092
C	0.777798	-0.481603	1.30417
H	1.78978	1.37193	1.70597
H	1.20734	-0.996448	2.15436
C	8.32162	1.17221	-0.859424
O	8.25794	2.25828	-1.46168
N	9.27797	0.185349	-1.30293
C	9.47267	-1.06339	-0.744446
H	9.82806	0.489244	-2.09705
N	10.4251	-1.87054	-1.29549
H	10.9876	-1.59957	-2.08284
H	10.559	-2.77809	-0.882
N	8.77652	-1.50455	0.295896
C	7.85638	-0.606448	0.753967
C	7.58182	0.676034	0.262882
N	6.5665	1.27706	1.01042
C	6.23809	0.381688	1.9265
N	6.99686	-0.787161	1.81338
H	5.4818	0.506297	2.68297
H	6.94285	-1.61482	2.38511
