29
  This energy is -0.0020522 and Call times are: 6123
C	1.21225	-0.0938431	-0.11722
N	2.5551	0.0118493	-0.548317
H	2.7872	0.562329	-1.38767
H	3.31211	-0.458082	-0.0303979
N	0.226587	0.533095	-0.813136
C	-1.07144	0.44729	-0.419945
O	-1.93698	1.0176	-1.05945
N	-1.40518	-0.280868	0.695769
C	-0.444723	-0.920037	1.4145
H	-2.4033	-0.347257	0.998719
C	0.889819	-0.839113	1.02072
H	-0.715182	-1.49224	2.29295
H	1.65846	-1.34654	1.59003
C	7.30677	-0.0805808	-1.32394
O	7.91619	-0.344398	-2.37529
N	6.51352	1.1245	-1.26283
C	5.78044	1.55836	-0.174927
H	6.53234	1.6604	-2.12191
N	5.08653	2.72733	-0.29465
H	5.08405	3.28245	-1.13226
H	4.55622	3.03505	0.503234
N	5.72559	0.890099	0.970487
C	6.461	-0.259769	0.964218
C	7.23365	-0.785681	-0.0787304
N	7.83209	-1.98478	0.314911
C	7.43144	-2.17622	1.56053
N	6.59167	-1.15056	2.00499
H	7.70118	-3.01098	2.18516
H	6.15474	-1.05947	2.90809
