29
  This energy is 0.00252739 and Call times are: 6330
C	-0.666165	-0.871799	-0.536936
N	-1.14932	-1.89077	-1.39047
H	-0.586022	-2.20206	-2.19496
H	-2.06521	-2.3307	-1.21802
N	0.544654	-0.302821	-0.779983
C	1.03156	0.677982	0.0248624
O	2.11885	1.17259	-0.212957
N	0.298659	1.10952	1.10331
C	-0.915541	0.562273	1.37502
H	0.672568	1.86381	1.72272
C	-1.42501	-0.444267	0.556532
H	-1.48774	0.907443	2.22689
H	-2.39175	-0.883259	0.768926
C	8.01116	1.11272	0.516758
O	7.22999	1.90022	1.07885
N	8.97613	1.63917	-0.419655
C	9.9088	0.901668	-1.12349
H	8.91912	2.64411	-0.531087
N	10.7462	1.56799	-1.97035
H	10.7158	2.56351	-2.10375
H	11.4215	1.02202	-2.47872
N	10.0209	-0.415952	-1.01
C	9.12831	-0.96356	-0.134463
C	8.14937	-0.309414	0.623868
N	7.43878	-1.22849	1.39931
C	7.9744	-2.40392	1.11612
N	9.01106	-2.29719	0.184094
H	7.67191	-3.34868	1.53528
H	9.57711	-3.03884	-0.195839
