29
  This energy is 2.588e-05 and Call times are: 5615
C	0.00290319	0.839623	0.887206
N	-0.0109791	2.04464	1.62747
H	-0.0567404	2.95096	1.13972
H	0.0243499	2.02946	2.65735
N	-0.0443698	0.87908	-0.471138
C	-0.0322806	-0.264255	-1.20562
O	-0.0754177	-0.203681	-2.4213
N	0.0284172	-1.48426	-0.577665
C	0.0767865	-1.55977	0.778635
H	0.0377364	-2.36397	-1.14197
C	0.0649571	-0.393833	1.54222
H	0.124523	-2.52498	1.26683
H	0.103338	-0.448897	2.62291
C	12.6522	-0.59222	0.670147
O	13.7407	-0.901775	1.18563
N	11.5575	-1.53144	0.738505
C	10.2917	-1.34056	0.218397
H	11.7951	-2.38892	1.22211
N	9.37655	-2.34053	0.375938
H	9.57984	-3.20281	0.850183
H	8.45782	-2.19218	-0.00676896
N	9.93468	-0.234453	-0.422385
C	10.937	0.687517	-0.514418
C	12.2456	0.593027	-0.0247789
N	12.9632	1.75315	-0.324994
C	12.1108	2.52535	-0.977577
N	10.8583	1.92074	-1.12003
H	12.3239	3.50695	-1.36592
H	10.041	2.29565	-1.57416
