29
  This energy is -0.00255998 and Call times are: 4902
C	0.348473	0.0771635	-1.16821
N	0.463013	-0.0589947	-2.57128
H	-0.206381	-0.645256	-3.09053
H	1.21327	0.4241	-3.0869
N	-0.647891	-0.567696	-0.504658
C	-0.779794	-0.453386	0.843068
O	-1.68034	-1.04055	1.41548
N	0.100627	0.32248	1.55673
C	1.10811	0.980728	0.924839
H	-0.000266922	0.410828	2.59328
C	1.25317	0.870906	-0.457011
H	1.79843	1.59056	1.49387
H	2.05414	1.39336	-0.964834
C	5.41504	1.11661	-0.913463
O	5.60542	2.1956	-1.50156
N	5.28587	-0.0896848	-1.69664
C	5.07289	-1.36082	-1.19862
H	5.36718	0.0693267	-2.69347
N	4.97525	-2.39013	-2.0893
H	5.05134	-2.26648	-3.08363
H	4.81963	-3.31186	-1.71682
N	4.96009	-1.6175	0.0986633
C	5.07496	-0.50708	0.884054
C	5.29019	0.817104	0.48216
N	5.3478	1.66057	1.594
C	5.17202	0.86689	2.63702
N	5.00069	-0.467819	2.25764
H	5.15715	1.17904	3.6676
H	4.85045	-1.26424	2.85593
