29
  This energy is -0.00692635 and Call times are: 4232
C	0.229259	-0.649121	-1.00905
N	0.803023	-1.19622	-2.18027
H	1.7141	-0.854194	-2.51844
H	0.318686	-1.93899	-2.70547
N	0.882826	0.330301	-0.329
C	0.353174	0.872561	0.798942
O	0.957255	1.74883	1.39109
N	-0.860135	0.432842	1.26899
C	-1.5401	-0.544714	0.613535
H	-1.26804	0.849465	2.13644
C	-1.00668	-1.10821	-0.544284
H	-2.49606	-0.886378	0.989885
H	-1.5446	-1.88717	-1.06989
C	6.79397	-0.420526	-0.525614
O	7.96833	-0.572158	-0.905361
N	5.85224	-1.49615	-0.729016
C	4.51894	-1.48588	-0.366559
H	6.25997	-2.30529	-1.18137
N	3.77255	-2.5958	-0.637346
H	4.14613	-3.41447	-1.08453
H	2.80262	-2.57833	-0.370014
N	3.94126	-0.449388	0.228022
C	4.79143	0.59657	0.443109
C	6.15031	0.686859	0.11661
N	6.66343	1.92659	0.504818
C	5.64221	2.56583	1.04999
N	4.47467	1.79679	1.0372
H	5.67251	3.5598	1.46332
H	3.56548	2.0507	1.38891
