29
  This energy is -0.00357924 and Call times are: 2901
C	0.791885	0.558834	-0.743459
N	1.55635	1.50988	-1.45855
H	1.40227	2.51718	-1.30682
H	2.27206	1.20739	-2.1356
N	-0.148053	0.976479	0.145912
C	-0.895806	0.0830919	0.845594
O	-1.73182	0.481146	1.63682
N	-0.708407	-1.26484	0.660192
C	0.222689	-1.71657	-0.221055
H	-1.28316	-1.95247	1.19801
C	0.995396	-0.809593	-0.944198
H	0.364932	-2.78058	-0.362054
H	1.73834	-1.16462	-1.64734
C	5.79507	-1.27375	0.38847
O	6.22763	-2.30638	0.929687
N	6.00935	-1.08784	-1.02741
C	5.59413	-0.00229264	-1.77464
H	6.51367	-1.85213	-1.45994
N	5.88498	0.00702303	-3.10792
H	6.38322	-0.734727	-3.56763
H	5.57882	0.802116	-3.64331
N	4.93081	1.02161	-1.25198
C	4.70257	0.893976	0.0876835
C	5.07837	-0.158365	0.931878
N	4.65517	0.0909214	2.23943
C	4.04151	1.26104	2.18492
N	4.0427	1.79433	0.892501
H	3.58518	1.76965	3.01728
H	3.64402	2.66702	0.585456
