29
  This energy is -0.00734919 and Call times are: 7976
C	-0.0892784	1.20383	-0.186894
N	-0.0855122	2.61143	-0.0494316
H	0.175734	3.04282	0.848938
H	-0.342671	3.21781	-0.842094
N	0.252959	0.419599	0.869868
C	0.257327	-0.935236	0.763884
O	0.56755	-1.61691	1.72434
N	-0.0873237	-1.53311	-0.423625
C	-0.434649	-0.778926	-1.4998
H	-0.0841589	-2.57506	-0.50581
C	-0.442716	0.611448	-1.40282
H	-0.705195	-1.25711	-2.43274
H	-0.718677	1.21646	-2.25734
C	7.22542	0.364286	-1.14605
O	7.74125	0.783361	-2.19707
N	8.02631	-0.433432	-0.247491
C	7.60491	-0.97165	0.953302
H	8.97277	-0.579308	-0.576901
N	8.50085	-1.70345	1.67724
H	9.44644	-1.86685	1.37907
H	8.18423	-2.09159	2.54997
N	6.3754	-0.807119	1.42533
C	5.57643	-0.058326	0.610449
C	5.90369	0.529201	-0.617973
N	4.80419	1.21597	-1.13798
C	3.84097	1.04695	-0.247832
N	4.26125	0.275543	0.839838
H	2.84199	1.44238	-0.321554
H	3.72343	0.00357958	1.64706
