29
  This energy is 0.00327959 and Call times are: 1601
C	0.0130242	0.0160543	1.22134
N	0.046305	0.400288	2.58205
H	0.0999704	1.39705	2.83701
H	0.0174108	-0.30872	3.32945
N	0.0519492	0.965481	0.248737
C	0.0212557	0.622675	-1.06594
O	0.0572019	1.49095	-1.91928
N	-0.050134	-0.699688	-1.43019
C	-0.0906051	-1.67424	-0.483507
H	-0.0737841	-0.964018	-2.44113
C	-0.0596986	-1.33453	0.867884
H	-0.146842	-2.71459	-0.778022
H	-0.0917134	-2.1073	1.62566
C	5.82417	-0.169796	-1.0229
O	4.85792	-0.125004	-1.80436
N	6.78147	-1.24212	-1.16036
C	7.90315	-1.43312	-0.376458
H	6.56155	-1.88112	-1.91461
N	8.70088	-2.50613	-0.649612
H	8.51122	-3.15847	-1.39004
H	9.51499	-2.63687	-0.0728384
N	8.23168	-0.62269	0.621958
C	7.35585	0.409983	0.793946
C	6.19739	0.691993	0.0592708
N	5.5762	1.84218	0.551347
C	6.33894	2.24222	1.55481
N	7.43968	1.40136	1.7447
H	6.16179	3.10705	2.1716
H	8.16682	1.48471	2.43689
