29
  This energy is -0.00180699 and Call times are: 4055
C	0.792245	0.777285	-0.510181
N	1.58243	1.9037	-0.837359
H	1.49708	2.7722	-0.289793
H	2.24868	1.86832	-1.62285
N	-0.0814828	0.842347	0.529654
C	-0.85212	-0.225753	0.864481
O	-1.6276	-0.143599	1.80004
N	-0.755884	-1.39425	0.149097
C	0.107282	-1.49343	-0.896226
H	-1.34829	-2.2161	0.406096
C	0.902637	-0.404507	-1.24875
H	0.177809	-2.41771	-1.45566
H	1.59171	-0.478692	-2.08067
C	7.18903	-0.676119	0.367603
O	8.27438	-1.07593	0.824215
N	6.52355	-1.46822	-0.639818
C	5.31901	-1.16476	-1.24494
H	7.02952	-2.31017	-0.886176
N	4.83587	-2.03176	-2.18154
H	5.31264	-2.87504	-2.44861
H	3.9583	-1.80166	-2.61681
N	4.62073	-0.0740561	-0.954551
C	5.20891	0.710687	-0.00518551
C	6.4192	0.495031	0.665632
N	6.66991	1.53413	1.56471
C	5.63948	2.3534	1.43919
N	4.71791	1.89603	0.492488
H	5.49688	3.27056	1.98531
H	3.85441	2.33246	0.211956
