29
  This energy is -0.00391644 and Call times are: 6683
C	-1.01499	-0.248793	0.632464
N	-2.01344	-0.855346	1.42961
H	-1.86645	-1.80045	1.81249
H	-2.89424	-0.361298	1.63514
N	0.140911	-0.915763	0.371812
C	1.11586	-0.35529	-0.391198
O	2.14276	-0.972181	-0.61097
N	0.942559	0.903501	-0.912572
C	-0.200748	1.59803	-0.671603
H	1.692	1.33514	-1.49947
C	-1.2075	1.0333	0.10951
H	-0.330449	2.58989	-1.08588
H	-2.12002	1.58266	0.304237
C	7.74732	1.29808	-0.492289
O	8.28343	2.39164	-0.743386
N	6.63909	0.862306	-1.30906
C	5.93871	-0.319597	-1.16165
H	6.39688	1.52042	-2.03967
N	4.91427	-0.569869	-2.0278
H	4.6486	0.061546	-2.76298
H	4.41004	-1.43293	-1.91192
N	6.21979	-1.21175	-0.220042
C	7.26251	-0.845715	0.581101
C	8.03352	0.321619	0.516502
N	9.00777	0.31816	1.51739
C	8.82885	-0.81953	2.1673
N	7.77464	-1.56773	1.63477
H	9.40792	-1.15885	3.00949
H	7.43681	-2.46452	1.94531
