29
  This energy is -0.00146926 and Call times are: 4100
C	-0.800457	0.910278	0.150901
N	-1.47536	2.08018	0.570543
H	-1.05436	2.69252	1.28413
H	-2.39075	2.33162	0.169331
N	0.406632	0.594473	0.691357
C	1.07554	-0.523766	0.305432
O	2.1555	-0.785845	0.803823
N	0.53423	-1.35541	-0.64418
C	-0.67054	-1.06947	-1.20485
H	1.04817	-2.2156	-0.941448
C	-1.36563	0.0746095	-0.81685
H	-1.09114	-1.72964	-1.95285
H	-2.32566	0.306604	-1.26061
C	7.01039	-0.879362	0.47933
O	7.85758	-1.54956	1.09533
N	6.93201	-1.00698	-0.956901
C	6.05143	-0.336008	-1.78367
H	7.60549	-1.66005	-1.33834
N	6.11885	-0.579998	-3.12467
H	6.77466	-1.22134	-3.53498
H	5.47377	-0.0861221	-3.71838
N	5.15212	0.52811	-1.3297
C	5.18557	0.68505	0.0257822
C	6.03231	0.0571137	0.947752
N	5.74684	0.489717	2.24479
C	4.75572	1.35447	2.10838
N	4.37527	1.50988	0.772029
H	4.27686	1.89158	2.90961
H	3.65103	2.10465	0.402526
