29
  This energy is -0.0134884 and Call times are: 6035
C	-0.0443528	0.832277	0.893004
N	0.121296	1.98546	1.69487
H	0.695251	2.77185	1.35786
H	-0.32786	2.05145	2.62009
N	0.555824	0.762933	-0.325138
C	0.412473	-0.33371	-1.11486
O	0.95975	-0.372794	-2.20222
N	-0.347771	-1.39452	-0.686932
C	-0.961555	-1.35813	0.525312
H	-0.458438	-2.23825	-1.29382
C	-0.821637	-0.23868	1.34377
H	-1.55931	-2.19806	0.856114
H	-1.30864	-0.205038	2.31026
C	4.21442	0.622296	0.295807
O	3.22879	1.24704	0.725432
N	4.06106	-0.191835	-0.886928
C	5.05246	-0.943468	-1.48804
H	3.12281	-0.172518	-1.26758
N	4.72776	-1.65631	-2.60552
H	3.80722	-1.65877	-3.00845
H	5.45648	-2.20087	-3.0356
N	6.29534	-0.999389	-1.02579
C	6.49264	-0.245035	0.0945143
C	5.56175	0.547485	0.777636
N	6.16061	1.1621	1.8797
C	7.41746	0.751343	1.86145
N	7.67224	-0.110425	0.790385
H	8.1785	1.02832	2.57128
H	8.54279	-0.558524	0.553425
