29
  This energy is 0.000746656 and Call times are: 4388
C	-0.522815	-0.781957	0.779305
N	-0.96395	-1.93789	1.46449
H	-0.689876	-2.87327	1.1308
H	-1.56118	-1.85768	2.30056
N	0.264743	-0.907149	-0.322044
C	0.70192	0.187583	-0.99826
O	1.40652	0.0503273	-1.98217
N	0.349529	1.4449	-0.572367
C	-0.436492	1.60596	0.524823
H	0.685432	2.28728	-1.09198
C	-0.890773	0.490502	1.22625
H	-0.710295	2.60014	0.854761
H	-1.51713	0.61373	2.10084
C	6.64927	0.38645	-1.24687
O	6.08194	0.923829	-2.21418
N	6.98174	-1.01652	-1.32642
C	7.60928	-1.75807	-0.343843
H	6.70778	-1.44401	-2.20265
N	7.8461	-3.07915	-0.590789
H	7.58726	-3.53357	-1.44885
H	8.3031	-3.6107	0.131118
N	7.98647	-1.24153	0.819118
C	7.6937	0.0857392	0.944439
C	7.06458	0.923376	0.0149897
N	6.95036	2.21856	0.525278
C	7.49533	2.1631	1.72888
N	7.96516	0.882004	2.03351
H	7.58257	2.98708	2.41677
H	8.41816	0.576733	2.87991
