29
  This energy is -0.000233989 and Call times are: 6396
C	-0.399069	0.416095	1.0769
N	-0.498951	0.938897	2.38723
H	0.352516	1.18633	2.91182
H	-1.41956	1.07734	2.82931
N	0.82414	0.240312	0.509671
C	0.947396	-0.260214	-0.747752
O	2.0538	-0.408727	-1.23479
N	-0.173388	-0.597333	-1.46651
C	-1.41145	-0.434389	-0.929615
H	-0.0792915	-0.982327	-2.43365
C	-1.55007	0.0780609	0.359102
H	-2.29051	-0.70231	-1.50206
H	-2.53419	0.209667	0.791068
C	9.1476	-0.90703	-0.637825
O	9.98389	-1.76509	-0.970531
N	8.60178	-0.0367282	-1.65264
C	7.6692	0.962096	-1.44821
H	8.97063	-0.219698	-2.57787
N	7.26375	1.69123	-2.52816
H	7.60969	1.53531	-3.45863
H	6.58477	2.4166	-2.36889
N	7.1578	1.23792	-0.25491
C	7.64301	0.44099	0.741355
C	8.58285	-0.592413	0.640895
N	8.81205	-1.16614	1.89359
C	8.03219	-0.497061	2.72598
N	7.29674	0.49606	2.07209
H	7.94993	-0.670975	3.78557
H	6.63523	1.13968	2.47576
