29
  This energy is -0.000473219 and Call times are: 7755
C	0.137461	-1.20002	-0.182146
N	0.231025	-2.49433	-0.744513
H	0.0981113	-2.62925	-1.7572
H	0.432084	-3.31231	-0.150704
N	-0.12849	-0.13243	-0.981159
C	-0.223518	1.12141	-0.465709
O	-0.462581	2.06219	-1.20135
N	-0.0502338	1.32599	0.881339
C	0.216829	0.280989	1.70853
H	-0.123179	2.29006	1.27841
C	0.316568	-1.00934	1.19112
H	0.35224	0.449755	2.76939
H	0.529144	-1.84496	1.84608
C	12.5535	-1.40331	0.36978
O	12.3647	-2.51728	0.889155
N	12.9971	-1.34151	-1.00303
C	13.251	-0.189217	-1.72201
H	13.1158	-2.25349	-1.42704
N	13.6657	-0.319174	-3.01563
H	13.7932	-1.20842	-3.46588
H	13.8485	0.525773	-3.53061
N	13.1094	1.02669	-1.2091
C	12.6909	1.0228	0.0901121
C	12.4074	-0.0815593	0.903344
N	12.0062	0.338776	2.17347
C	12.0468	1.65974	2.12715
N	12.4591	2.12836	0.876094
H	11.7986	2.32396	2.93768
H	12.5721	3.08553	0.583066
