29
  This energy is 0.00576806 and Call times are: 5034
C	-0.904754	-0.814055	0.104136
N	-1.68937	-1.99074	0.111026
H	-1.27255	-2.89211	-0.163197
H	-2.68131	-1.95962	0.388909
N	0.402419	-0.874264	-0.265411
C	1.17783	0.241683	-0.280542
O	2.34623	0.162885	-0.615267
N	0.644312	1.45459	0.0808763
C	-0.658767	1.55033	0.455594
H	1.24014	2.31325	0.0694674
C	-1.46356	0.412549	0.474918
H	-1.07256	2.50979	0.739219
H	-2.50215	0.483795	0.772677
C	6.78269	0.718789	0.0688585
O	5.6432	1.17009	0.279139
N	7.64002	1.40305	-0.870271
C	8.92609	1.03213	-1.2132
H	7.20898	2.22085	-1.28377
N	9.59326	1.79932	-2.1235
H	9.19472	2.61619	-2.55205
H	10.529	1.52067	-2.36702
N	9.53179	-0.0304561	-0.697832
C	8.76118	-0.713699	0.197936
C	7.45527	-0.423678	0.612424
N	7.01898	-1.36768	1.54486
C	8.03362	-2.20354	1.68829
N	9.12307	-1.8485	0.887182
H	8.05113	-3.06391	2.33575
H	10.0116	-2.31722	0.812076
