29
  This energy is -0.000232871 and Call times are: 5880
C	1.19989	0.0837763	-0.212981
N	2.57416	-0.185636	-0.410609
H	2.92625	-1.15179	-0.347493
H	3.23489	0.577398	-0.618783
N	0.342784	-0.935696	0.0607729
C	-0.98209	-0.703547	0.254798
O	-1.73049	-1.63294	0.498788
N	-1.47471	0.576097	0.175702
C	-0.645607	1.61833	-0.0962127
H	-2.49356	0.755328	0.324812
C	0.714972	1.39225	-0.297023
H	-1.04096	2.62442	-0.157036
H	1.37937	2.21926	-0.51388
C	8.64544	-0.606051	1.31768
O	8.28912	-1.09581	2.40373
N	10.0561	-0.52599	1.0196
C	10.6127	-0.0122253	-0.135975
H	10.6431	-0.893884	1.7583
N	11.9727	-0.0157577	-0.248806
H	12.5832	-0.37308	0.464951
H	12.3685	0.360974	-1.09381
N	9.8843	0.480115	-1.13022
C	8.5405	0.42761	-0.89673
C	7.87845	-0.0698052	0.232685
N	6.49563	0.0572419	0.0823132
C	6.32883	0.615846	-1.10465
N	7.54735	0.86261	-1.74422
H	5.38208	0.863978	-1.55391
H	7.695	1.27757	-2.65021
