29
  This energy is 0.000607981 and Call times are: 6639
C	-0.00309512	0.107832	-1.21675
N	-0.169178	0.555864	-2.54789
H	-0.610878	1.46749	-2.73562
H	0.148074	-0.021519	-3.34042
N	-0.427787	0.883179	-0.183613
C	-0.279948	0.475748	1.1044
O	-0.66821	1.18759	2.0132
N	0.305892	-0.735694	1.37938
C	0.741652	-1.53551	0.370426
H	0.419907	-1.04964	2.36977
C	0.595306	-1.12805	-0.954402
H	1.20252	-2.48921	0.59469
H	0.940857	-1.76172	-1.76154
C	8.70665	0.207441	0.0344196
O	7.52543	0.592452	-0.018601
N	8.98345	-1.12512	0.516973
C	10.2339	-1.70068	0.636673
H	8.14985	-1.63843	0.776207
N	10.309	-2.97691	1.11409
H	9.50195	-3.51334	1.37995
H	11.224	-3.38699	1.19804
N	11.3535	-1.06744	0.309499
C	11.1455	0.199659	-0.15337
C	9.92751	0.872398	-0.312555
N	10.1427	2.15745	-0.815799
C	11.454	2.25657	-0.955889
N	12.1132	1.08724	-0.565004
H	11.9822	3.1199	-1.32382
H	13.1041	0.905938	-0.573942
