29
  This energy is -0.00430482 and Call times are: 1896
C	1.20825	-0.0763432	-0.162527
N	2.54272	0.106657	-0.593746
H	2.76337	0.817562	-1.30602
H	3.30495	-0.466006	-0.202348
N	0.215494	0.6885	-0.690109
C	-1.07474	0.532489	-0.292893
O	-1.94688	1.22936	-0.779857
N	-1.39322	-0.408808	0.655236
C	-0.425324	-1.19016	1.20319
H	-2.38534	-0.529298	0.961184
C	0.901347	-1.03907	0.803532
H	-0.683747	-1.93015	1.9501
H	1.67587	-1.65916	1.23714
C	5.65723	0.0843321	1.3872
O	5.34453	-0.0633323	2.58166
N	5.44242	1.3697	0.765196
C	5.73449	1.69514	-0.545511
H	5.04011	2.0558	1.39209
N	5.46377	2.96479	-0.966265
H	5.06518	3.66877	-0.3702
H	5.67954	3.19181	-1.92253
N	6.26205	0.830197	-1.4029
C	6.48478	-0.40321	-0.86237
C	6.22646	-0.833106	0.445211
N	6.59776	-2.1706	0.60076
C	7.06668	-2.53673	-0.580253
N	7.01977	-1.49339	-1.50975
H	7.44643	-3.5132	-0.829351
H	7.31474	-1.51213	-2.47279
