29
  This energy is -0.00848552 and Call times are: 7447
C	-1.13059	-0.209611	0.412242
N	-2.49745	-0.550531	0.537574
H	-3.02437	-0.885451	-0.281937
H	-2.97881	-0.468115	1.44512
N	-0.512009	-0.324755	-0.79316
C	0.800294	-0.00369667	-0.940169
O	1.3327	-0.115072	-2.02991
N	1.52329	0.445053	0.137938
C	0.935969	0.57191	1.35718
H	2.53262	0.692137	0.0255561
C	-0.409273	0.245606	1.51985
H	1.5121	0.926298	2.20259
H	-0.88154	0.34501	2.48912
C	6.04299	1.34284	0.530467
O	6.01811	2.42487	1.14277
N	5.21323	1.1867	-0.640987
C	5.12659	0.0544395	-1.42817
H	4.66806	2.01194	-0.858557
N	4.28591	0.0836913	-2.50276
H	3.73161	0.885751	-2.74608
H	4.22946	-0.745885	-3.06947
N	5.82126	-1.04949	-1.18252
C	6.62323	-0.953024	-0.0822469
C	6.78319	0.141064	0.777224
N	7.69929	-0.162342	1.787
C	8.08077	-1.4048	1.54305
N	7.4526	-1.93388	0.411586
H	8.78817	-1.96994	2.1261
H	7.56858	-2.85271	0.0152202
