29
  This energy is -0.00876693 and Call times are: 2345
C	-1.05674	0.611296	0.0416632
N	-2.40303	1.00042	0.23227
H	-3.08186	0.336428	0.631916
H	-2.71812	1.94731	-0.0251271
N	-0.659041	-0.642232	0.387202
C	0.628598	-1.04085	0.214228
O	0.96126	-2.16877	0.53129
N	1.5515	-0.173268	-0.316779
C	1.18767	1.08703	-0.672956
H	2.54198	-0.479212	-0.450065
C	-0.130088	1.50688	-0.500145
H	1.92057	1.76553	-1.09095
H	-0.424694	2.50986	-0.782373
C	7.8023	0.484372	0.569739
O	8.95189	0.87186	0.842913
N	6.81321	0.443774	1.62105
C	5.49895	0.04037	1.48268
H	7.16967	0.749297	2.51836
N	4.70072	0.0660079	2.58926
H	5.02295	0.363441	3.4934
H	3.74545	-0.230119	2.47833
N	4.9876	-0.367491	0.327806
C	5.88486	-0.347967	-0.700593
C	7.22993	0.0405602	-0.666577
N	7.80554	-0.0847525	-1.93303
C	6.83448	-0.536405	-2.70878
N	5.63997	-0.714188	-2.00432
H	6.92027	-0.751721	-3.76046
H	4.75771	-1.04512	-2.36055
