29
  This energy is 0.00130757 and Call times are: 6101
C	-0.675738	0.819541	0.603191
N	-1.33769	1.5791	1.59574
H	-1.23233	1.33391	2.59083
H	-1.92952	2.38182	1.33593
N	0.101104	-0.236254	0.964719
C	0.747715	-0.982032	0.0306205
O	1.43806	-1.92313	0.378678
N	0.622358	-0.674392	-1.30207
C	-0.146288	0.374391	-1.69808
H	1.11941	-1.24756	-2.02099
C	-0.814106	1.1463	-0.748988
H	-0.240494	0.611042	-2.75039
H	-1.42756	1.98273	-1.05958
C	7.47471	1.08347	0.936901
O	7.44396	1.9531	1.82523
N	6.35789	0.97738	0.0276932
C	6.23845	0.0700041	-1.00747
H	5.62625	1.65304	0.21143
N	5.10761	0.112946	-1.77016
H	4.3636	0.770213	-1.61458
H	5.02984	-0.552233	-2.52118
N	7.17047	-0.832921	-1.28608
C	8.2499	-0.774236	-0.452739
C	8.46782	0.100835	0.618743
N	9.6996	-0.164162	1.22158
C	10.2099	-1.17106	0.532731
N	9.36341	-1.5814	-0.501595
H	11.1603	-1.64151	0.719884
H	9.51723	-2.32215	-1.16675
