29
  This energy is -0.00823045 and Call times are: 5991
C	-0.114948	1.12008	-0.473617
N	-0.605956	2.35833	-0.948921
H	-1.61414	2.56599	-0.905867
H	0.0358632	3.06269	-1.34145
N	-0.976683	0.202795	0.0410553
C	-0.530451	-0.994316	0.50434
O	-1.32146	-1.80005	0.960955
N	0.809167	-1.2937	0.457296
C	1.69789	-0.399532	-0.0508649
H	1.15302	-2.21421	0.813452
C	1.25176	0.831343	-0.528904
H	2.75246	-0.642357	-0.0847868
H	1.95589	1.54688	-0.934621
C	5.46475	0.286306	0.931526
O	4.42955	0.608676	1.54044
N	6.55685	-0.296399	1.67514
C	7.76758	-0.706232	1.1504
H	6.36288	-0.389672	2.66472
N	8.68955	-1.23748	2.00485
H	8.52873	-1.34393	2.99103
H	9.56826	-1.53245	1.61317
N	8.06639	-0.60409	-0.13872
C	7.06415	-0.057501	-0.886938
C	5.80812	0.387346	-0.455899
N	5.07001	0.881795	-1.5337
C	5.85926	0.7391	-2.58511
N	7.08973	0.169625	-2.24398
H	5.61425	1.01782	-3.59607
H	7.86135	-0.0428272	-2.85575
