29
  This energy is -0.00535431 and Call times are: 2006
C	0.842303	-0.843138	0.267868
N	2.04879	-1.53607	0.521821
H	2.95156	-1.0439	0.457079
H	2.03822	-2.53552	0.773052
N	0.875642	0.475494	-0.0622689
C	-0.26923	1.16411	-0.311088
O	-0.21417	2.34477	-0.605013
N	-1.48458	0.52933	-0.231007
C	-1.55393	-0.788074	0.0964532
H	-2.36547	1.05836	-0.422241
C	-0.386357	-1.50444	0.353755
H	-2.51549	-1.28192	0.157693
H	-0.436517	-2.55404	0.614977
C	6.06709	-1.24066	0.272064
O	6.62935	-2.34971	0.28607
N	6.07621	-0.440376	1.474
C	5.50005	0.806724	1.62215
H	6.56232	-0.881443	2.24519
N	5.60598	1.42163	2.83582
H	6.08112	1.0118	3.6207
H	5.18269	2.32924	2.9338
N	4.85372	1.42365	0.640717
C	4.81652	0.706561	-0.520087
C	5.36511	-0.556869	-0.773266
N	5.10903	-0.944252	-2.09057
C	4.42498	0.0577345	-2.61671
N	4.21933	1.09184	-1.69853
H	4.05595	0.103223	-3.6274
H	3.73146	1.9605	-1.84759
