29
  This energy is -0.00630369 and Call times are: 4762
C	-0.460333	-0.87966	-0.711618
N	-0.637225	-1.9945	-1.56374
H	0.177713	-2.54364	-1.87314
H	-1.57815	-2.26831	-1.88282
N	0.788666	-0.533214	-0.300683
C	0.985647	0.533452	0.518006
O	2.11384	0.824429	0.872853
N	-0.0853746	1.28063	0.943519
C	-1.34733	0.961971	0.551701
H	0.0654315	2.10111	1.57319
C	-1.56144	-0.129818	-0.287805
H	-2.18685	1.55549	0.891074
H	-2.56486	-0.387573	-0.602625
C	7.56345	-0.270753	-0.573604
O	8.7152	-0.275505	-1.04239
N	6.8494	-1.52149	-0.468806
C	5.57011	-1.68574	0.0267632
H	7.38172	-2.31578	-0.802459
N	5.0492	-2.94685	0.0511665
H	5.55047	-3.75559	-0.271967
H	4.11676	-3.05598	0.413371
N	4.83516	-0.675496	0.474899
C	5.46664	0.532072	0.396943
C	6.75286	0.80508	-0.0851547
N	7.02752	2.17154	0.00583767
C	5.93713	2.70729	0.528097
N	4.95305	1.74815	0.785752
H	5.79216	3.75279	0.741765
H	4.03745	1.89484	1.17941
