29
  This energy is -0.0105662 and Call times are: 1751
C	0.986954	0.612996	-0.377183
N	2.01603	1.56593	-0.559294
H	2.03089	2.42606	0.0076088
H	2.75833	1.41126	-1.2573
N	0.0158642	0.833983	0.548582
C	-0.983878	-0.0657633	0.743008
O	-1.84267	0.154114	1.57819
N	-1.02471	-1.21962	-0.000870499
C	-0.0698033	-1.47189	-0.934736
H	-1.79333	-1.91204	0.148173
C	0.960295	-0.556352	-1.14283
H	-0.108374	-2.38358	-1.51746
H	1.72324	-0.752882	-1.8856
C	6.00867	0.574018	-0.361153
O	4.93086	0.940754	-0.861324
N	6.383	1.08417	0.936853
C	7.54042	0.776547	1.62599
H	5.69916	1.71925	1.33005
N	7.73179	1.35415	2.84751
H	7.07359	1.98789	3.2657
H	8.57792	1.12421	3.3412
N	8.46429	-0.049715	1.15133
C	8.15705	-0.560276	-0.0766761
C	7.01864	-0.314599	-0.854479
N	7.08218	-1.03172	-2.05141
C	8.2271	-1.69117	-1.99665
N	8.92223	-1.43779	-0.810338
H	8.60771	-2.35182	-2.7572
H	9.81255	-1.81323	-0.525429
