29
  This energy is 0.00397477 and Call times are: 1298
C	-0.275113	0.749641	0.924371
N	-0.281991	1.78556	1.88722
H	0.473085	2.48638	1.89854
H	-1.03828	1.85043	2.58432
N	0.730934	0.679931	0.0122839
C	0.760835	-0.305374	-0.923189
O	1.67236	-0.347201	-1.72989
N	-0.234721	-1.25093	-0.957911
C	-1.2552	-1.21071	-0.0609136
H	-0.212327	-2.00899	-1.67713
C	-1.2963	-0.204841	0.903006
H	-2.03656	-1.95944	-0.094259
H	-2.10715	-0.168643	1.61967
C	8.0415	-1.09168	-0.332176
O	7.17283	-1.87174	-0.760245
N	8.96685	-1.56309	0.671174
C	9.98401	-0.825782	1.24643
H	8.81008	-2.52699	0.939324
N	10.7663	-1.43531	2.18386
H	10.6375	-2.38929	2.47211
H	11.504	-0.889876	2.59726
N	10.2273	0.439229	0.926893
C	9.37743	0.933394	-0.0199697
C	8.32161	0.274282	-0.661939
N	7.69256	1.13005	-1.56908
C	8.35081	2.27323	-1.47634
N	9.3901	2.20599	-0.543559
H	8.13758	3.16737	-2.0374
H	10.0364	2.93496	-0.287267
