29
  This energy is 2.2089e-05 and Call times are: 8279
C	0.064019	1.06909	0.587414
N	-0.221772	2.31972	1.18282
H	-1.17677	2.7044	1.14532
H	0.518116	2.85708	1.65815
N	-0.924925	0.374139	-0.0354192
C	-0.676514	-0.829562	-0.61527
O	-1.57858	-1.43357	-1.1674
N	0.588764	-1.36258	-0.578142
C	1.60051	-0.69435	0.0362157
H	0.780488	-2.28831	-1.0239
C	1.35752	0.540909	0.634298
H	2.59543	-1.12063	0.0615804
H	2.16024	1.07699	1.12488
C	7.97035	1.07817	0.540398
O	8.57349	1.94157	1.20153
N	8.22202	0.986365	-0.878555
C	7.63668	0.0873236	-1.74934
H	8.89622	1.66522	-1.21051
N	7.99411	0.144011	-3.06516
H	8.65934	0.804709	-3.42668
H	7.56194	-0.514504	-3.69136
N	6.74909	-0.819631	-1.36054
C	6.47576	-0.774042	-0.0240235
C	7.01051	0.0915584	0.938312
N	6.47194	-0.186365	2.19674
C	5.63571	-1.19141	1.99841
N	5.60097	-1.5883	0.65826
H	5.03829	-1.6695	2.75622
H	5.0501	-2.32505	0.247707
