29
  This energy is -0.00177207 and Call times are: 6749
C	-0.830244	-0.539215	-0.715577
N	-1.97131	-0.844155	-1.49355
H	-2.7306	-0.154624	-1.59067
H	-2.05536	-1.75452	-1.96925
N	-0.736637	0.667107	-0.09516
C	0.349058	0.984686	0.657993
O	0.410388	2.07157	1.20418
N	1.37383	0.0816457	0.802152
C	1.31246	-1.13324	0.195622
H	2.20912	0.325272	1.38125
C	0.20392	-1.46992	-0.579227
H	2.12402	-1.8401	0.313704
H	0.150481	-2.43648	-1.06434
C	5.50139	0.479898	1.34462
O	5.09935	1.02916	2.3853
N	6.50691	-0.551555	1.44571
C	7.05573	-1.25506	0.3907
H	6.79866	-0.734544	2.39806
N	7.99983	-2.19942	0.672108
H	8.3112	-2.40529	1.60508
H	8.39381	-2.70594	-0.10298
N	6.70486	-1.05024	-0.872827
C	5.7546	-0.0819084	-1.02252
C	5.13764	0.684739	-0.0260681
N	4.21673	1.56938	-0.59199
C	4.27706	1.34239	-1.89336
N	5.20167	0.342336	-2.20915
H	3.69746	1.84929	-2.64627
H	5.43518	-0.0153968	-3.12145
