29
  This energy is -0.0020612 and Call times are: 1707
C	0.538405	1.09126	-0.106731
N	0.867016	2.42525	-0.442486
H	0.243956	2.97362	-1.05281
H	1.72867	2.86108	-0.0822869
N	-0.60273	0.532758	-0.591276
C	-0.941271	-0.746939	-0.283712
O	-1.9686	-1.22557	-0.729708
N	-0.126369	-1.49759	0.528004
C	1.02168	-0.970249	1.02948
H	-0.386164	-2.48186	0.764948
C	1.37907	0.341095	0.720827
H	1.65922	-1.56788	1.66871
H	2.29261	0.765561	1.1179
C	7.93562	-0.170577	-0.422401
O	9.03905	-0.503202	-0.889451
N	7.85383	1.02116	0.388939
C	6.70965	1.52387	0.978265
H	8.74411	1.4903	0.502466
N	6.81769	2.66717	1.71551
H	7.68521	3.15677	1.84767
H	5.97897	3.02498	2.14102
N	5.52184	0.944209	0.857292
C	5.54561	-0.189634	0.0977496
C	6.64406	-0.77979	-0.539771
N	6.25015	-1.93414	-1.22039
C	4.95046	-2.037	-0.99913
N	4.47046	-0.995692	-0.199119
H	4.30971	-2.81665	-1.37509
H	3.52473	-0.843712	0.112815
