29
  This energy is -0.00194363 and Call times are: 8086
C	-0.794643	-0.339408	0.863396
N	-1.55329	-0.457691	2.05113
H	-1.37568	0.17606	2.84374
H	-2.28813	-1.17524	2.13637
N	0.170842	0.613383	0.768958
C	0.913664	0.747827	-0.361073
O	1.77295	1.60881	-0.422195
N	0.695113	-0.0855161	-1.43074
C	-0.262073	-1.04868	-1.36991
H	1.26606	0.0173598	-2.30015
C	-1.03002	-1.19587	-0.216127
H	-0.428804	-1.70202	-2.217
H	-1.79367	-1.96165	-0.16292
C	7.90469	0.493169	-0.889706
O	7.13306	0.807801	-1.81271
N	7.60204	0.93442	0.451523
C	8.35351	0.670993	1.58071
H	6.75188	1.48147	0.510941
N	7.91557	1.1702	2.77291
H	7.07711	1.71613	2.86618
H	8.46998	0.973349	3.58925
N	9.47342	-0.0407074	1.55177
C	9.80433	-0.482139	0.303283
C	9.11597	-0.272189	-0.89813
N	9.78394	-0.891345	-1.95709
C	10.8455	-1.45857	-1.40924
N	10.9047	-1.23842	-0.0298356
H	11.5936	-2.02831	-1.93409
H	11.6072	-1.5609	0.61618
