29
  This energy is 0.000565779 and Call times are: 6308
C	0.421457	-1.1013	0.318775
N	1.10148	-2.34017	0.373725
H	1.76018	-2.60238	-0.37379
H	0.946423	-2.99073	1.15785
N	0.638662	-0.255561	-0.723547
C	-0.00203156	0.940477	-0.799938
O	0.208813	1.68137	-1.74334
N	-0.884723	1.31175	0.184658
C	-1.12511	0.49019	1.24052
H	-1.3778	2.23149	0.126516
C	-0.473812	-0.73884	1.32943
H	-1.82225	0.789442	2.01298
H	-0.662032	-1.3967	2.1686
C	8.52782	-0.607902	-0.772158
O	9.44101	-0.931673	-1.55164
N	8.1333	-1.5358	0.261545
C	7.14219	-1.32879	1.20177
H	8.66393	-2.39828	0.249387
N	6.902	-2.31982	2.10869
H	7.41002	-3.18667	2.12399
H	6.17798	-2.15974	2.78892
N	6.4215	-0.21563	1.2567
C	6.75641	0.69613	0.29774
C	7.73816	0.585209	-0.694813
N	7.76874	1.73921	-1.48112
C	6.83138	2.52381	-0.97665
N	6.18295	1.93327	0.112173
H	6.57332	3.50511	-1.3375
H	5.43738	2.3192	0.668929
