29
  This energy is -0.0144023 and Call times are: 7178
C	-0.728989	0.497756	0.844348
N	-1.78917	1.13686	1.52832
H	-2.61385	1.47009	1.00844
H	-1.74865	1.27552	2.54874
N	-0.79987	0.323445	-0.502308
C	0.205204	-0.287474	-1.18307
O	0.119131	-0.432282	-2.38931
N	1.3146	-0.740014	-0.511598
C	1.41773	-0.581988	0.834501
H	2.08795	-1.20997	-1.03457
C	0.393168	0.0430712	1.54315
H	2.2952	-0.941226	1.3572
H	0.47077	0.171257	2.61551
C	5.20362	0.474789	1.15973
O	4.44185	0.690034	2.11874
N	6.25277	1.42588	0.877046
C	7.1769	1.33345	-0.145993
H	6.26549	2.21031	1.51743
N	8.10245	2.32914	-0.265563
H	8.14245	3.12036	0.352603
H	8.77073	2.25298	-1.01399
N	7.19931	0.324979	-1.00858
C	6.22455	-0.603699	-0.783891
C	5.24591	-0.604193	0.217886
N	4.435	-1.73598	0.106394
C	4.91151	-2.39913	-0.933749
N	6.00551	-1.74973	-1.51356
H	4.52641	-3.33	-1.31444
H	6.54518	-2.04435	-2.31154
