29
  This energy is -0.00040099 and Call times are: 7667
C	0.517061	-0.583006	-0.94067
N	1.16712	-0.912848	-2.15264
H	1.47569	-0.167669	-2.79366
H	1.33836	-1.8969	-2.40653
N	0.299677	0.720925	-0.62224
C	-0.322658	1.06442	0.53601
O	-0.50625	2.23924	0.799613
N	-0.743022	0.0885313	1.40627
C	-0.541619	-1.22465	1.1189
H	-1.22171	0.352034	2.29725
C	0.0955309	-1.5888	-0.066026
H	-0.875684	-1.98853	1.80964
H	0.258217	-2.63355	-0.29933
C	13.3558	-1.37893	-0.265717
O	13.234	-2.57853	-0.569799
N	12.2238	-0.687	0.30439
C	12.1957	0.638437	0.69374
H	11.4048	-1.2741	0.40532
N	11.0339	1.12876	1.21544
H	10.2042	0.57341	1.32905
H	11.0234	2.0952	1.4955
N	13.2433	1.44548	0.580939
C	14.342	0.837708	0.0455939
C	14.4742	-0.490425	-0.378551
N	15.7624	-0.720004	-0.867265
C	16.3891	0.437589	-0.74135
N	15.5654	1.42275	-0.188468
H	17.4108	0.631706	-1.02132
H	15.7998	2.38226	0.00958988
