29
  This energy is -0.0066433 and Call times are: 1320
C	1.15888	0.383061	0.0486585
N	2.36759	1.1014	-0.103914
H	2.38605	1.97198	-0.65452
H	3.23845	0.763723	0.331632
N	0.0195705	0.843821	-0.533202
C	-1.15464	0.172407	-0.401842
O	-2.16219	0.604746	-0.932251
N	-1.20388	-0.990471	0.327342
C	-0.0835963	-1.47909	0.922157
H	-2.10665	-1.50734	0.428771
C	1.12626	-0.799011	0.794279
H	-0.129897	-2.39638	1.49545
H	2.02135	-1.1843	1.26627
C	7.05852	0.144494	1.43118
O	6.7079	0.433979	2.58859
N	8.02516	-0.911112	1.24017
C	8.51593	-1.35112	0.0257935
H	8.33623	-1.33113	2.10758
N	9.42974	-2.36465	0.0330486
H	9.75895	-2.80269	0.875363
H	9.78149	-2.67761	-0.856258
N	8.1379	-0.831772	-1.13564
C	7.2226	0.172867	-1.00918
C	6.6646	0.690545	0.166385
N	5.76359	1.71528	-0.13201
C	5.77823	1.81266	-1.45073
N	6.65353	0.892266	-2.03506
H	5.19801	2.5066	-2.03516
H	6.84698	0.762133	-3.01508
