29
  This energy is 0.00154772 and Call times are: 8130
C	0.102844	0.41428	-1.14451
N	0.364853	1.18907	-2.29833
H	0.786058	2.12497	-2.20838
H	0.138537	0.827947	-3.23669
N	0.408172	0.907091	0.0854499
C	0.166464	0.182821	1.20966
O	0.448558	0.645355	2.30047
N	-0.394444	-1.0673	1.11481
C	-0.711929	-1.59009	-0.0990601
H	-0.580591	-1.62486	1.97904
C	-0.468575	-0.856433	-1.25886
H	-1.15385	-2.57621	-0.166197
H	-0.719767	-1.26865	-2.22808
C	9.00478	0.525855	1.31342
O	9.16039	0.816966	2.51233
N	9.74526	1.26265	0.316423
C	9.68559	1.06334	-1.04955
H	10.3462	1.9764	0.71011
N	10.4584	1.85623	-1.84734
H	11.0649	2.57278	-1.48894
H	10.4075	1.70367	-2.84066
N	8.91371	0.14088	-1.61066
C	8.19095	-0.584699	-0.708318
C	8.17901	-0.463364	0.686832
N	7.30316	-1.39461	1.2495
C	6.80101	-2.05866	0.222068
N	7.31102	-1.60258	-0.997196
H	6.08372	-2.85964	0.282703
H	7.0918	-1.93841	-1.9213
