29
  This energy is 0.00512998 and Call times are: 5483
C	-0.910088	0.776992	-0.245219
N	-1.76721	1.73355	-0.837337
H	-1.53195	2.14228	-1.75331
H	-2.63184	2.03063	-0.361641
N	0.226514	0.396999	-0.887583
C	1.06681	-0.52014	-0.340242
O	2.07913	-0.844795	-0.934549
N	0.774265	-1.07881	0.879891
C	-0.353627	-0.721456	1.54903
H	1.42011	-1.78424	1.3014
C	-1.22282	0.218156	0.997443
H	-0.577816	-1.166	2.51046
H	-2.1225	0.506017	1.52669
C	5.32226	0.365495	0.912336
O	4.29696	0.750878	1.50104
N	6.3904	-0.221616	1.68665
C	7.58772	-0.696753	1.18682
H	6.18973	-0.263874	2.67838
N	8.48727	-1.22157	2.0687
H	8.31928	-1.27831	3.05779
H	9.35638	-1.56442	1.69499
N	7.89455	-0.66266	-0.104018
C	6.91495	-0.114975	-0.880868
C	5.67392	0.392545	-0.476425
N	4.95761	0.864211	-1.57887
C	5.74505	0.647179	-2.61885
N	6.95338	0.0504946	-2.2465
H	5.51365	0.88908	-3.64242
H	7.71917	-0.215998	-2.84428
