29
  This energy is -0.00171997 and Call times are: 7777
C	1.02668	0.548326	0.370632
N	2.02571	1.21709	1.11559
H	1.84736	1.48852	2.0933
H	2.93813	1.43905	0.690903
N	-0.171235	0.263668	0.947565
C	-1.14771	-0.377978	0.253576
O	-2.21267	-0.622171	0.791735
N	-0.933113	-0.749644	-1.05112
C	0.252809	-0.480539	-1.65838
H	-1.6837	-1.24317	-1.58543
C	1.26156	0.177029	-0.956499
H	0.414915	-0.776486	-2.68715
H	2.20794	0.393594	-1.43595
C	10.0126	-0.304927	0.97887
O	8.9921	-0.441399	1.67628
N	11.2417	-0.924728	1.41496
C	12.4558	-0.868391	0.757763
H	11.147	-1.43313	2.28567
N	13.5184	-1.51622	1.31771
H	13.4582	-2.02917	2.17969
H	14.3983	-1.46884	0.831801
N	12.6277	-0.21519	-0.384751
C	11.4924	0.390149	-0.840459
C	10.2204	0.394014	-0.254552
N	9.32633	1.12984	-1.03566
C	10.0396	1.55772	-2.06369
N	11.3698	1.13321	-1.99225
H	9.67087	2.16215	-2.87514
H	12.113	1.32213	-2.64552
