29
  This energy is -0.00180204 and Call times are: 4366
C	-0.429156	-0.983606	-0.583483
N	-0.644973	-2.28834	-1.08482
H	-0.0232447	-3.06013	-0.803371
H	-1.4223	-2.48037	-1.73368
N	0.601545	-0.748994	0.271796
C	0.830422	0.495399	0.767712
O	1.75998	0.681128	1.53244
N	0.0150225	1.54006	0.406837
C	-1.02431	1.34045	-0.446118
H	0.190495	2.49736	0.787893
C	-1.26865	0.0685378	-0.961033
H	-1.66295	2.16867	-0.726198
H	-2.09535	-0.0954049	-1.64082
C	7.07597	-0.227469	0.669042
O	8.09629	-0.640299	1.24771
N	6.97453	1.17833	0.354999
C	5.91304	1.79236	-0.281698
H	7.78167	1.71396	0.650275
N	5.98673	3.13777	-0.498003
H	6.77255	3.6979	-0.21785
H	5.20854	3.57568	-0.961886
N	4.83526	1.13203	-0.686571
C	4.88199	-0.204221	-0.412148
C	5.90352	-0.920535	0.223986
N	5.56748	-2.27333	0.313145
C	4.37645	-2.36971	-0.253339
N	3.91272	-1.13354	-0.713301
H	3.80536	-3.27609	-0.363215
H	3.04106	-0.936404	-1.17822
