29
  This energy is 0.00225282 and Call times are: 9111
C	0.926011	0.334037	-0.723209
N	2.18933	0.49509	-1.33831
H	3.01079	-0.00757155	-0.972325
H	2.30147	1.11369	-2.15494
N	0.797007	-0.486425	0.353402
C	-0.4056	-0.658409	0.962491
O	-0.496486	-1.3986	1.92543
N	-1.51489	0.0011924	0.492574
C	-1.42121	0.828844	-0.581581
H	-2.44011	-0.130648	0.960558
C	-0.193031	1.01294	-1.21427
H	-2.29988	1.34555	-0.946518
H	-0.113419	1.67122	-2.07027
C	6.51861	-1.08709	-0.279658
O	5.91359	-2.14118	-0.542701
N	5.7525	0.109542	-0.0220959
C	6.2702	1.35379	0.282849
H	4.75196	-0.0344506	-0.0835646
N	5.39382	2.37779	0.496672
H	4.39633	2.26854	0.443437
H	5.78064	3.28007	0.717592
N	7.57302	1.59004	0.374498
C	8.34281	0.4878	0.13877
C	7.92055	-0.809909	-0.175798
N	9.02117	-1.65377	-0.341532
C	10.0775	-0.886014	-0.132831
N	9.71759	0.431893	0.164402
H	11.1047	-1.20605	-0.178689
H	10.3286	1.20792	0.36255
