29
  This energy is -0.00493495 and Call times are: 5100
C	0.382595	1.04184	-0.510188
N	1.15807	2.09377	-1.05088
H	2.18492	2.01626	-1.08219
H	0.706959	2.94478	-1.4175
N	0.995158	-0.0735705	-0.0311177
C	0.273016	-1.09836	0.493437
O	0.844088	-2.08747	0.91642
N	-1.09708	-1.01779	0.545924
C	-1.74139	0.0828697	0.0758081
H	-1.65308	-1.8056	0.949223
C	-1.01116	1.14004	-0.46435
H	-2.82169	0.139448	0.120436
H	-1.51993	2.01889	-0.840096
C	5.66082	-0.774832	1.14663
O	6.1283	-1.58433	1.96669
N	5.02833	0.426795	1.6378
C	4.46275	1.42055	0.862083
H	5.02819	0.495044	2.6482
N	3.90579	2.49155	1.49854
H	3.88909	2.58979	2.49845
H	3.49604	3.20961	0.924919
N	4.43953	1.37471	-0.46416
C	5.02639	0.25521	-0.979307
C	5.62463	-0.804033	-0.285467
N	6.10995	-1.76039	-1.18033
C	5.81237	-1.29073	-2.38016
N	5.14961	-0.0615304	-2.31283
H	6.03897	-1.77222	-3.31642
H	4.8169	0.502093	-3.07863
