29
  This energy is -0.000171199 and Call times are: 5302
C	0.965288	-0.323214	-0.675174
N	1.9154	-0.485985	-1.71009
H	1.77706	-0.0184192	-2.61765
H	2.75202	-1.07093	-1.56854
N	-0.132562	0.452448	-0.880022
C	-1.06026	0.625022	0.0979459
O	-2.03555	1.32458	-0.108997
N	-0.897433	0.0117365	1.31605
C	0.188406	-0.770414	1.55436
H	-1.61055	0.144058	2.06864
C	1.14635	-0.954638	0.558855
H	0.31019	-1.25075	2.51699
H	2.013	-1.57677	0.743958
C	7.00767	0.23189	-1.43138
O	6.98602	0.594585	-2.62063
N	7.88174	-0.85248	-1.05014
C	8.02215	-1.37156	0.222648
H	8.41575	-1.22765	-1.82451
N	8.89894	-2.40188	0.401533
H	9.44359	-2.79681	-0.344895
H	8.99368	-2.7733	1.33192
N	7.34433	-0.912644	1.26741
C	6.5015	0.115715	0.958892
C	6.28637	0.711657	-0.290059
N	5.3424	1.7358	-0.185216
C	4.99801	1.75647	1.09138
N	5.67766	0.786158	1.83388
H	4.28327	2.42707	1.5377
H	5.59664	0.595698	2.81976
