29
  This energy is 0.00032753 and Call times are: 7557
C	-0.813534	-0.683188	0.602931
N	-1.65844	-1.72631	1.04823
H	-1.66165	-2.63355	0.560051
H	-2.27684	-1.5911	1.86151
N	-0.00426352	-0.879763	-0.471932
C	0.816826	0.106193	-0.919739
O	1.53279	-0.0934306	-1.88459
N	0.83842	1.3241	-0.285187
C	0.0422602	1.55425	0.792195
H	1.46969	2.08282	-0.629081
C	-0.80389	0.550518	1.26034
H	0.0645535	2.51679	1.28743
H	-1.43995	0.729114	2.11821
C	13.6217	0.540771	-1.20356
O	14.1545	0.783832	-2.30054
N	13.3592	1.63564	-0.299362
C	12.7766	1.53409	0.949389
H	13.648	2.5349	-0.664791
N	12.6044	2.67926	1.67138
H	12.8795	3.58646	1.33813
H	12.1797	2.59478	2.5797
N	12.3823	0.378335	1.46934
C	12.6092	-0.690706	0.65158
C	13.189	-0.695793	-0.623224
N	13.242	-1.99657	-1.12931
C	12.7091	-2.75446	-0.18573
N	12.3061	-2.00517	0.923736
H	12.5856	-3.82317	-0.234441
H	11.875	-2.34037	1.77025
