29
  This energy is -0.00261318 and Call times are: 2849
C	0.0619509	0.665069	-1.02272
N	-0.161208	1.60204	-2.05835
H	-0.940595	2.27239	-1.99045
H	0.450026	1.62443	-2.88782
N	-0.754788	0.650294	0.0642997
C	-0.561855	-0.239777	1.07295
O	-1.30657	-0.23386	2.03668
N	0.470493	-1.14311	1.00471
C	1.30568	-1.15572	-0.0676197
H	0.619436	-1.82793	1.78013
C	1.11747	-0.247573	-1.10803
H	2.11738	-1.87068	-0.114628
H	1.78016	-0.253749	-1.96431
C	5.1539	0.459189	-1.38051
O	5.12846	1.03484	-2.48247
N	5.79656	-0.830291	-1.28346
C	5.90959	-1.59579	-0.13873
H	6.18119	-1.15332	-2.16283
N	6.5525	-2.79598	-0.231148
H	6.94514	-3.14537	-1.0876
H	6.62916	-3.34625	0.607823
N	5.42196	-1.21397	1.03515
C	4.80265	0.00177808	0.99656
C	4.63519	0.851719	-0.103833
N	3.94533	2.00635	0.272789
C	3.70356	1.85646	1.56423
N	4.20684	0.648078	2.05538
H	3.1841	2.56123	2.1913
H	4.15546	0.296709	2.99809
