29
  This energy is -0.00594906 and Call times are: 8301
C	-0.17089	-0.262973	-1.18057
N	-0.253534	-0.902049	-2.43954
H	0.00300614	-1.89543	-2.53331
H	-0.569556	-0.383883	-3.27247
N	0.248187	-0.96258	-0.0925399
C	0.336401	-0.37198	1.12821
O	0.714451	-1.01913	2.08825
N	-0.000138697	0.951192	1.27779
C	-0.422877	1.67979	0.21101
H	0.0674719	1.40602	2.2164
C	-0.517278	1.08468	-1.04579
H	-0.686495	2.7224	0.336384
H	-0.853502	1.66098	-1.89857
C	5.46111	0.592234	1.33237
O	5.52535	1.27847	2.3674
N	4.89263	-0.732911	1.40995
C	4.7498	-1.6168	0.357565
H	4.58798	-0.984089	2.34251
N	4.18835	-2.83382	0.614398
H	3.87578	-3.11396	1.5274
H	4.08916	-3.47059	-0.158404
N	5.13377	-1.33194	-0.880573
C	5.67954	-0.0872864	-1.00721
C	5.86851	0.878836	-0.0111094
N	6.46045	2.02395	-0.548924
C	6.62389	1.75545	-1.83342
N	6.16294	0.477863	-2.16511
H	7.0566	2.4189	-2.56304
H	6.17229	0.0348485	-3.06979
