29
  This energy is 0.000663129 and Call times are: 8934
C	-0.713079	0.811178	-0.570629
N	-1.34892	1.63593	-1.52757
H	-1.06768	1.59114	-2.51768
H	-2.09651	2.28728	-1.24652
N	0.271337	-0.0422397	-0.959851
C	0.897984	-0.845223	-0.0602051
O	1.77695	-1.60161	-0.432626
N	0.540242	-0.803093	1.26519
C	-0.439767	0.0384488	1.68825
H	1.02179	-1.42041	1.95762
C	-1.0894	0.866594	0.774592
H	-0.716525	0.0662993	2.7346
H	-1.87067	1.53863	1.10682
C	9.43411	-0.944672	0.602085
O	10.3624	-1.70257	0.934049
N	8.27006	-0.856067	1.45199
C	7.15939	-0.0658049	1.22602
H	8.32733	-1.44683	2.27254
N	6.14646	-0.107548	2.13956
H	6.17186	-0.682276	2.96345
H	5.34179	0.471128	1.96579
N	7.03982	0.723832	0.165957
C	8.11684	0.676027	-0.671188
C	9.28419	-0.0855508	-0.534791
N	10.1476	0.149678	-1.60724
C	9.51809	1.02847	-2.36895
N	8.27276	1.383	-1.84152
H	9.89174	1.44141	-3.29069
H	7.60186	2.02877	-2.22582
