29
  This energy is -0.00251234 and Call times are: 7932
C	0.151475	0.935014	-0.771306
N	0.130206	1.80011	-1.88997
H	-0.353429	1.51639	-2.75427
H	0.595741	2.71883	-1.85307
N	-0.468266	-0.273427	-0.838264
C	-0.462459	-1.12297	0.222432
O	-1.02451	-2.20022	0.138719
N	0.175812	-0.766665	1.38522
C	0.805193	0.433875	1.48609
H	0.180644	-1.41958	2.20137
C	0.805802	1.31325	0.404747
H	1.30631	0.708055	2.40584
H	1.3058	2.27069	0.48031
C	6.13768	0.749213	1.11801
O	5.85259	1.50905	2.06019
N	5.19395	-0.276707	0.741115
C	5.3591	-1.19572	-0.277371
H	4.35418	-0.27591	1.30712
N	4.35908	-2.0986	-0.494367
H	3.51394	-2.12473	0.0486059
H	4.48903	-2.76399	-1.23795
N	6.44127	-1.23494	-1.04479
C	7.36661	-0.282868	-0.727967
C	7.29695	0.688922	0.278054
N	8.45123	1.47541	0.276632
C	9.19598	0.991049	-0.702888
N	8.57874	-0.0844988	-1.34859
H	10.1658	1.35777	-0.993986
H	8.93314	-0.625371	-2.12103
