29
  This energy is -0.0127018 and Call times are: 6220
C	-0.990236	-0.0808363	-0.710638
N	-2.27071	0.0713896	-1.29155
H	-2.9581	0.711477	-0.868221
H	-2.52888	-0.453458	-2.14009
N	-0.667223	0.619903	0.408968
C	0.556184	0.491626	0.986593
O	0.822527	1.12978	1.9892
N	1.489	-0.355653	0.440345
C	1.199	-1.07107	-0.678437
H	2.43011	-0.454765	0.884095
C	-0.0524443	-0.947593	-1.27948
H	1.93927	-1.73706	-1.1035
H	-0.288119	-1.51541	-2.1708
C	6.24476	-1.42829	0.0240638
O	6.34643	-2.65235	0.218121
N	7.02782	-0.822779	-1.0273
C	7.0293	0.516094	-1.36874
H	7.60904	-1.48532	-1.5261
N	7.83616	0.915087	-2.39447
H	8.42445	0.283774	-2.90936
H	7.83054	1.89211	-2.63515
N	6.28491	1.42032	-0.744392
C	5.52417	0.897166	0.260923
C	5.44975	-0.435717	0.684233
N	4.55098	-0.56031	1.74612
C	4.09643	0.663456	1.95711
N	4.65969	1.59146	1.07604
H	3.37861	0.945294	2.70881
H	4.48257	2.58198	1.02802
