29
  This energy is 0.00131475 and Call times are: 5279
C	0.354787	-1.05293	-0.507516
N	0.495502	-2.40927	-0.882738
H	-0.120669	-3.12605	-0.472881
H	1.21207	-2.694	-1.56655
N	-0.596333	-0.695793	0.396206
C	-0.75204	0.600445	0.7735
O	-1.61105	0.896146	1.58471
N	0.0576591	1.5736	0.240793
C	1.01847	1.25121	-0.665023
H	-0.0615774	2.57072	0.530534
C	1.18733	-0.0748903	-1.05943
H	1.65311	2.02362	-1.08076
H	1.95133	-0.336608	-1.78069
C	6.11707	-1.08865	0.917488
O	6.46132	-1.84998	1.83846
N	5.54823	-1.6588	-0.28107
C	5.11779	-0.95408	-1.38889
H	5.4824	-2.66894	-0.251866
N	4.6043	-1.66	-2.43786
H	4.52501	-2.66173	-2.44078
H	4.29408	-1.13778	-3.2401
N	5.18393	0.368875	-1.47241
C	5.71604	0.957309	-0.361703
C	6.17924	0.338514	0.806137
N	6.64898	1.29382	1.71039
C	6.47395	2.45608	1.10438
N	5.90685	2.30586	-0.164704
H	6.72705	3.42041	1.5115
H	5.67387	3.02981	-0.825327
