29
  This energy is -0.0114743 and Call times are: 4627
C	-0.763434	-0.664428	0.683969
N	-1.64892	-1.12819	1.68452
H	-1.903	-0.517183	2.47416
H	-2.04757	-2.07727	1.635
N	-0.247255	0.590862	0.765812
C	0.605569	1.06039	-0.182378
O	1.05508	2.18838	-0.0876121
N	0.958922	0.264177	-1.24427
C	0.461312	-0.995712	-1.35676
H	1.61477	0.624684	-1.97387
C	-0.414116	-1.48792	-0.390342
H	0.74427	-1.61772	-2.19657
H	-0.813122	-2.49088	-0.475624
C	5.90062	-1.23323	-0.430025
O	5.55789	-2.37395	-0.787284
N	4.89142	-0.206626	-0.316911
C	5.10691	1.1036	0.0652517
H	3.96119	-0.532007	-0.55008
N	4.03088	1.94133	0.117267
H	3.09567	1.65042	-0.107488
H	4.19821	2.89356	0.396163
N	6.30708	1.57487	0.379989
C	7.29842	0.641094	0.288413
C	7.1869	-0.703688	-0.0863304
N	8.43785	-1.32414	-0.0532397
C	9.27998	-0.379568	0.33061
N	8.6342	0.840462	0.552484
H	10.3413	-0.502224	0.465681
H	9.04591	1.71086	0.848649
