29
  This energy is -0.000191986 and Call times are: 2455
C	0.0109657	-0.810456	-0.913866
N	-0.331638	-1.64945	-1.99967
H	-1.29151	-1.64531	-2.37388
H	0.371298	-2.27083	-2.42617
N	-0.929701	0.00286547	-0.363825
C	-0.626224	0.818442	0.679998
O	-1.4857	1.5382	1.15607
N	0.646623	0.830214	1.19589
C	1.61106	0.029771	0.66982
H	0.880691	1.45724	1.99868
C	1.31138	-0.810798	-0.40081
H	2.61228	0.0443181	1.08162
H	2.07628	-1.45024	-0.823248
C	8.57416	0.642617	1.1999
O	9.05628	0.976286	2.29652
N	8.15308	1.67452	0.281718
C	7.60106	1.47141	-0.968555
H	8.299	2.61131	0.637689
N	7.25963	2.5688	-1.70442
H	7.39117	3.51099	-1.38082
H	6.85791	2.41042	-2.61331
N	7.39137	0.263334	-1.47664
C	7.77343	-0.749426	-0.645126
C	8.33907	-0.651841	0.632308
N	8.58738	-1.9236	1.15375
C	8.18252	-2.76435	0.216759
N	7.67664	-2.09769	-0.903232
H	8.22353	-3.83877	0.277522
H	7.30717	-2.50411	-1.7477
