29
  This energy is -0.0144638 and Call times are: 1430
C	0.0314032	-0.726636	0.981389
N	0.365659	-1.70506	1.94638
H	1.18371	-2.31472	1.80312
H	-0.202321	-1.81833	2.79885
N	0.792429	-0.591544	-0.137307
C	0.492702	0.340677	-1.07962
O	1.18923	0.442953	-2.0735
N	-0.592994	1.16476	-0.910608
C	-1.37493	1.05652	0.19594
H	-0.824059	1.88195	-1.63496
C	-1.07719	0.104102	1.16901
H	-2.22921	1.70953	0.322485
H	-1.69712	0.0140818	2.05218
C	4.49872	-0.85014	0.281582
O	3.67245	-1.72103	0.60588
N	4.023	0.36456	-0.3376
C	4.80717	1.42312	-0.75435
H	3.01701	0.388636	-0.451568
N	4.18526	2.49673	-1.32262
H	3.19006	2.55216	-1.45017
H	4.76501	3.26225	-1.62329
N	6.12808	1.43655	-0.625596
C	6.62866	0.307514	-0.0444143
C	5.9253	-0.814746	0.410694
N	6.80602	-1.75848	0.944203
C	8.00684	-1.22011	0.814134
N	7.95373	0.0423497	0.215719
H	8.93422	-1.67304	1.12164
H	8.72316	0.657631	0.00542916
