29
  This energy is -0.00336402 and Call times are: 8868
C	0.050706	0.489072	-1.11819
N	0.297496	1.32011	-2.23566
H	0.824064	2.19819	-2.12114
H	-0.0448422	1.05789	-3.1717
N	0.510147	0.851193	0.109277
C	0.28647	0.0704802	1.1989
O	0.707906	0.415742	2.28821
N	-0.413065	-1.10455	1.07092
C	-0.886456	-1.49641	-0.141489
H	-0.585433	-1.70546	1.90855
C	-0.66312	-0.703789	-1.26598
H	-1.43709	-2.42394	-0.234865
H	-1.03825	-1.01174	-2.2339
C	7.02381	1.35841	-0.421123
O	7.3963	2.41464	-0.961448
N	6.31714	1.43123	0.83606
C	5.83908	0.356429	1.56092
H	6.18836	2.379	1.16883
N	5.19156	0.612051	2.73467
H	5.04716	1.53979	3.09272
H	4.84762	-0.17729	3.25543
N	5.98386	-0.902058	1.16492
C	6.64759	-1.02524	-0.0214031
C	7.16903	-0.00728436	-0.829596
N	7.77676	-0.549188	-1.96447
C	7.62597	-1.85739	-1.8436
N	6.94231	-2.20077	-0.673378
H	7.9758	-2.59673	-2.54414
H	6.7006	-3.12331	-0.348894
