29
  This energy is 0.00070676 and Call times are: 3856
C	-1.16303	0.304628	-0.216052
N	-2.37781	0.726237	-0.804965
H	-2.40106	1.01283	-1.79428
H	-3.24837	0.751288	-0.253945
N	-0.0242335	0.277993	-0.958569
C	1.15574	-0.122969	-0.416599
O	2.16268	-0.138434	-1.10159
N	1.21144	-0.509532	0.900171
C	0.0918572	-0.494925	1.67083
H	2.11863	-0.81803	1.31761
C	-1.12387	-0.0856048	1.12577
H	0.143273	-0.800999	2.70809
H	-2.01842	-0.0722656	1.73569
C	5.76319	-0.000791582	-1.22817
O	5.23936	0.160277	-2.34441
N	5.19161	-0.971317	-0.324527
C	5.65224	-1.26795	0.943934
H	4.38353	-1.44723	-0.706746
N	4.98568	-2.21789	1.66202
H	4.18133	-2.7083	1.31236
H	5.32854	-2.4264	2.5848
N	6.70637	-0.671051	1.48622
C	7.28415	0.257901	0.669949
C	6.89828	0.630958	-0.62359
N	7.75119	1.6191	-1.12063
C	8.62669	1.83574	-0.153521
N	8.38552	1.02927	0.962796
H	9.43951	2.54128	-0.189394
H	8.90397	1.0006	1.82605
