29
  This energy is -0.00273997 and Call times are: 4672
C	0.844895	0.638616	-0.608631
N	1.59581	1.31466	-1.59825
H	1.25595	1.35182	-2.57012
H	2.48639	1.77503	-1.3594
N	-0.327977	0.0369691	-0.942224
C	-1.06826	-0.618957	-0.0102549
O	-2.11565	-1.15023	-0.332934
N	-0.63552	-0.681944	1.29174
C	0.532296	-0.0914557	1.65932
H	-1.2044	-1.18625	2.00901
C	1.29985	0.584011	0.712105
H	0.867204	-0.145181	2.68752
H	2.23083	1.05596	1.00012
C	5.04704	0.214946	1.44266
O	5.12361	0.60689	2.6203
N	4.57425	-1.12479	1.18427
C	4.43168	-1.70844	-0.0599911
H	4.34057	-1.63645	2.0264
N	3.9688	-2.99094	-0.117132
H	3.72807	-3.52592	0.698716
H	3.86896	-3.40726	-1.02777
N	4.72477	-1.07751	-1.1903
C	5.17757	0.195974	-0.999819
C	5.35737	0.8772	0.210517
N	5.83953	2.16709	-0.0232476
C	5.94751	2.26068	-1.3379
N	5.55541	1.08314	-1.98164
H	6.29254	3.12539	-1.87918
H	5.54318	0.896529	-2.9715
