29
  This energy is -0.000273677 and Call times are: 8518
C	-0.066356	-1.2034	0.198859
N	-0.487038	-2.51106	0.53544
H	-1.44116	-2.67268	0.888924
H	0.152735	-3.31231	0.43139
N	-0.924266	-0.158306	0.342625
C	-0.544723	1.10769	0.0263613
O	-1.33082	2.02781	0.163561
N	0.722178	1.34777	-0.446656
C	1.60495	0.325987	-0.602424
H	1.01472	2.32121	-0.690089
C	1.22681	-0.976511	-0.281303
H	2.602	0.522702	-0.975818
H	1.9265	-1.79374	-0.403685
C	5.9119	0.141526	1.42788
O	6.14781	0.486366	2.59911
N	5.73349	-1.26179	1.13794
C	5.46711	-1.80566	-0.103994
H	5.82179	-1.85393	1.95474
N	5.32836	-3.16027	-0.194114
H	5.40989	-3.77554	0.596173
H	5.13503	-3.5467	-1.10287
N	5.34271	-1.07007	-1.20171
C	5.5034	0.267209	-0.980523
C	5.77382	0.916394	0.230566
N	5.8651	2.29624	0.0340482
C	5.65568	2.47381	-1.25953
N	5.42952	1.26526	-1.9251
H	5.65301	3.42182	-1.77043
H	5.24584	1.12671	-2.90585
