29
  This energy is -0.00302637 and Call times are: 4880
C	0.828314	-0.794977	0.417152
N	1.65914	-1.92127	0.620735
H	1.58256	-2.73968	-0.000353559
H	2.34657	-1.93563	1.38844
N	-0.0729354	-0.79385	-0.601003
C	-0.882805	0.275669	-0.817964
O	-1.68239	0.253498	-1.73642
N	-0.798971	1.3781	-0.00307833
C	0.0909203	1.41012	1.02389
H	-1.42154	2.201	-0.169404
C	0.926586	0.319056	1.25595
H	0.151455	2.28254	1.6622
H	1.63706	0.339883	2.07277
C	5.43784	0.327672	0.160954
O	4.19838	0.387816	0.241357
N	6.21174	1.51512	0.437091
C	7.58918	1.61392	0.391862
H	5.64253	2.31655	0.680563
N	8.15513	2.82094	0.683669
H	7.61941	3.63499	0.928803
H	9.15882	2.88283	0.647479
N	8.37556	0.591707	0.0784101
C	7.69057	-0.557424	-0.192437
C	6.30527	-0.762207	-0.174877
N	6.00374	-2.0839	-0.51125
C	7.17471	-2.6597	-0.725753
N	8.23789	-1.7701	-0.544093
H	7.32605	-3.68797	-1.00776
H	9.22249	-1.95745	-0.645333
