29
  This energy is -0.0046939 and Call times are: 3318
C	0.722867	-0.614228	0.769608
N	1.61137	-0.988404	1.80441
H	1.9878	-0.275631	2.44602
H	1.89054	-1.97282	1.92734
N	0.365621	0.689482	0.622621
C	-0.48637	1.07507	-0.363413
O	-0.791814	2.24877	-0.475292
N	-1.00102	0.142842	-1.23088
C	-0.664745	-1.16881	-1.11223
H	-1.65635	0.43873	-1.98945
C	0.208167	-1.5759	-0.104798
H	-1.07431	-1.89814	-1.79966
H	0.479005	-2.61961	-0.00628368
C	7.13035	0.419638	1.0846
O	7.69947	0.897296	2.08173
N	7.87147	-0.466224	0.217885
C	7.38726	-1.07652	-0.923276
H	8.82543	-0.618398	0.521818
N	8.23236	-1.88649	-1.62476
H	9.18369	-2.05844	-1.35059
H	7.87052	-2.32588	-2.45455
N	6.1454	-0.907281	-1.35996
C	5.40162	-0.0758761	-0.573428
C	5.79424	0.588331	0.595329
N	4.73658	1.3455	1.10424
C	3.7344	1.14343	0.265473
N	4.08866	0.282317	-0.77746
H	2.75112	1.57501	0.347056
H	3.51165	-0.0300168	-1.54186
