29
  This energy is -0.00356156 and Call times are: 2675
C	-1.14731	-0.100734	-0.406992
N	-2.3242	-0.475023	-1.09626
H	-2.28892	-1.20664	-1.82077
H	-3.22513	-0.0224857	-0.882543
N	0.0324835	-0.708818	-0.702313
C	1.17743	-0.367524	-0.0546647
O	2.22231	-0.926283	-0.336469
N	1.15517	0.605023	0.914909
C	-0.00712893	1.23297	1.23482
H	2.03539	0.867977	1.4134
C	-1.18755	0.891217	0.577243
H	-0.0171501	1.9987	2.0002
H	-2.11589	1.38863	0.828604
C	5.03252	-1.41463	0.31344
O	4.86082	-2.54774	0.796045
N	5.27416	-1.29141	-1.10488
C	5.48315	-0.111158	-1.79225
H	5.27984	-2.18091	-1.58897
N	5.69734	-0.182548	-3.13812
H	5.70919	-1.04821	-3.64825
H	5.84903	0.682326	-3.62957
N	5.48437	1.07714	-1.20105
C	5.26001	1.0149	0.14389
C	5.03811	-0.121827	0.931247
N	4.84963	0.239892	2.26713
C	4.95516	1.55796	2.28451
N	5.20583	2.081	1.01238
H	4.86429	2.18327	3.15656
H	5.32708	3.04772	0.756341
