29
  This energy is 0.000834456 and Call times are: 8042
C	0.5654	1.04781	0.272984
N	1.39298	2.04686	0.836263
H	2.04698	1.80915	1.596
H	1.35115	3.01834	0.494804
N	0.634319	-0.22872	0.736239
C	-0.14993	-1.20703	0.212129
O	-0.0704224	-2.34324	0.64352
N	-1.02946	-0.914131	-0.801306
C	-1.12375	0.351547	-1.28789
H	-1.6329	-1.66609	-1.20485
C	-0.324445	1.363	-0.758101
H	-1.81934	0.575118	-2.08689
H	-0.395977	2.37276	-1.14241
C	9.15101	0.0845089	-1.45277
O	9.15893	-0.0532436	-2.6886
N	8.63698	1.31213	-0.892485
C	8.55935	1.61958	0.452359
H	8.31863	1.96994	-1.59357
N	8.04304	2.83299	0.803677
H	7.71852	3.50778	0.133533
H	7.99121	3.04769	1.78539
N	8.96357	0.789963	1.40624
C	9.45961	-0.388001	0.927273
C	9.58134	-0.795476	-0.407063
N	10.1386	-2.07435	-0.47715
C	10.347	-2.42782	0.77996
N	9.94922	-1.43252	1.67765
H	10.7706	-3.36239	1.10702
H	10.0011	-1.45314	2.68347
