29
  This energy is 0.00226014 and Call times are: 9200
C	-0.961514	-0.709886	0.252312
N	-2.0882	-1.32213	0.848966
H	-2.43928	-0.985928	1.75733
H	-2.5678	-2.10705	0.384185
N	-0.341486	0.324636	0.880182
C	0.742787	0.930029	0.328202
O	1.28144	1.8549	0.909456
N	1.22901	0.499247	-0.881936
C	0.633141	-0.532291	-1.53651
H	2.06288	0.964426	-1.30702
C	-0.479491	-1.16078	-0.980027
H	1.02191	-0.866538	-2.49011
H	-0.957558	-1.98291	-1.49768
C	8.35936	0.770343	1.23853
O	8.25274	1.58401	2.17283
N	9.04551	-0.477626	1.47721
C	9.24779	-1.48193	0.550047
H	9.38763	-0.571573	2.42574
N	9.92109	-2.59893	0.951683
H	10.2733	-2.72349	1.88454
H	10.0638	-3.32434	0.269064
N	8.81794	-1.40362	-0.703211
C	8.16121	-0.239603	-0.980442
C	7.90435	0.834019	-0.118661
N	7.20249	1.8391	-0.788086
C	7.04094	1.38403	-2.01916
N	7.60851	0.11764	-2.18903
H	6.53776	1.90145	-2.81843
H	7.62275	-0.44432	-3.02498
