%nprocshared=8
%mem=8GB
%chk=opt-AT-pair.chk
#opt b3lyp/6-31g

Title Card Required

0 1
C	0.123699	-1.16918	-0.732626
N	-1.00758	-0.98214	-1.4629
C	-1.75283	0.128779	-1.2454
C	0.474586	-0.194033	0.224622
C	-0.385975	0.909167	0.348742
N	-1.51421	1.12156	-0.36129
H	-2.64286	0.228279	-1.85366
N	0.865153	-2.28124	-0.953827
H	0.557962	-2.93785	-1.65246
H	1.70778	-2.44814	-0.429395
N	1.54862	-0.0914114	1.11613
C	1.33783	1.04799	1.76129
N	0.1806	1.69565	1.33701
H	1.97345	1.45201	2.53168
H	-0.191489	2.56984	1.6716
C	7.50441	1.94305	0.203151
C	6.53477	0.820721	-0.032639
H	7.82516	1.96852	1.25094
H	7.03654	2.91292	-0.00140266
H	8.39119	1.84381	-0.430112
C	5.29281	0.814991	0.744473
C	6.744	-0.183409	-0.920824
N	5.82738	-1.20662	-1.11494
H	7.63951	-0.240746	-1.52733
N	4.42665	-0.264893	0.475595
C	4.61927	-1.30325	-0.427888
H	3.56178	-0.288572	1.00176
H	6.00574	-1.94269	-1.78182
O	3.80635	-2.22589	-0.611787
O	4.97947	1.67658	1.59067








